146254417
  -OEChem-05102415023D

 72 76  0     1  0  0  0  0  0999 V2000
    0.1590    3.5628   -1.2679 Cl  0  0  0  0  0  0  0  0  0  0  0  0
   -3.2570    4.0210    2.4921 F   0  0  0  0  0  0  0  0  0  0  0  0
   -2.6520    1.9567    2.2150 F   0  0  0  0  0  0  0  0  0  0  0  0
   -1.3043    3.5673    1.6507 F   0  0  0  0  0  0  0  0  0  0  0  0
    7.3762    1.3388    0.8674 O   0  0  0  0  0  0  0  0  0  0  0  0
    0.0257   -4.0054    1.2868 O   0  0  0  0  0  0  0  0  0  0  0  0
    2.9846   -0.7248    0.2541 N   0  0  0  0  0  0  0  0  0  0  0  0
    5.3799    0.7294   -0.1593 N   0  0  0  0  0  0  0  0  0  0  0  0
   -0.9215   -2.0253    0.5542 N   0  0  0  0  0  0  0  0  0  0  0  0
    1.4472   -2.3310    0.8017 N   0  0  0  0  0  0  0  0  0  0  0  0
    3.7274   -0.2400    1.4254 C   0  0  2  0  0  0  0  0  0  0  0  0
    4.5856    0.9698    1.0448 C   0  0  0  0  0  0  0  0  0  0  0  0
    3.7372   -0.9270   -0.9843 C   0  0  0  0  0  0  0  0  0  0  0  0
    4.6000    0.2868   -1.3197 C   0  0  0  0  0  0  0  0  0  0  0  0
    1.6957   -1.1306    0.3615 C   0  0  0  0  0  0  0  0  0  0  0  0
    4.5610   -1.3698    2.0304 C   0  0  0  0  0  0  0  0  0  0  0  0
    0.5925   -0.2085   -0.0072 C   0  0  0  0  0  0  0  0  0  0  0  0
   -0.7208   -0.6771    0.1253 C   0  0  0  0  0  0  0  0  0  0  0  0
    6.7517    0.9667   -0.1276 C   0  0  0  0  0  0  0  0  0  0  0  0
    0.8443    1.1053   -0.4320 C   0  0  0  0  0  0  0  0  0  0  0  0
    0.1732   -2.8388    0.9145 C   0  0  0  0  0  0  0  0  0  0  0  0
   -2.2431   -2.5756    0.5816 C   0  0  0  0  0  0  0  0  0  0  0  0
   -1.7714    0.2294   -0.1093 C   0  0  0  0  0  0  0  0  0  0  0  0
   -1.5194    1.5374   -0.5291 C   0  0  0  0  0  0  0  0  0  0  0  0
   -2.7692   -3.2291   -0.5328 C   0  0  0  0  0  0  0  0  0  0  0  0
   -0.2126    1.9713   -0.7012 C   0  0  0  0  0  0  0  0  0  0  0  0
   -1.9738   -3.3776   -1.7890 C   0  0  0  0  0  0  0  0  0  0  0  0
    7.5149    0.7619   -1.3749 C   0  0  0  0  0  0  0  0  0  0  0  0
   -2.6540    2.4087   -0.7732 C   0  0  0  0  0  0  0  0  0  0  0  0
   -3.0068   -2.4512    1.7422 C   0  0  0  0  0  0  0  0  0  0  0  0
   -4.0590   -3.7583   -0.4865 C   0  0  0  0  0  0  0  0  0  0  0  0
   -1.7021   -4.8517   -2.1401 C   0  0  0  0  0  0  0  0  0  0  0  0
   -2.6300   -2.6652   -2.9854 C   0  0  0  0  0  0  0  0  0  0  0  0
   -4.2966   -2.9804    1.7884 C   0  0  0  0  0  0  0  0  0  0  0  0
   -3.1862    3.2001    0.2448 C   0  0  0  0  0  0  0  0  0  0  0  0
   -4.8226   -3.6340    0.6742 C   0  0  0  0  0  0  0  0  0  0  0  0
   -3.2132    2.4463   -2.0504 C   0  0  0  0  0  0  0  0  0  0  0  0
    8.7923    0.3840   -1.2945 C   0  0  0  0  0  0  0  0  0  0  0  0
   -4.2776    4.0291   -0.0146 C   0  0  0  0  0  0  0  0  0  0  0  0
   -2.6133    3.1867    1.6257 C   0  0  0  0  0  0  0  0  0  0  0  0
   -4.3047    3.2753   -2.3099 C   0  0  0  0  0  0  0  0  0  0  0  0
   -4.8368    4.0667   -1.2920 C   0  0  0  0  0  0  0  0  0  0  0  0
    3.0153    0.0908    2.1931 H   0  0  0  0  0  0  0  0  0  0  0  0
    5.2220    1.2649    1.8858 H   0  0  0  0  0  0  0  0  0  0  0  0
    3.9394    1.8279    0.8213 H   0  0  0  0  0  0  0  0  0  0  0  0
    3.0580   -1.1259   -1.8222 H   0  0  0  0  0  0  0  0  0  0  0  0
    4.3706   -1.8149   -0.8725 H   0  0  0  0  0  0  0  0  0  0  0  0
    5.2319    0.0363   -2.1726 H   0  0  0  0  0  0  0  0  0  0  0  0
    3.9712    1.1333   -1.6185 H   0  0  0  0  0  0  0  0  0  0  0  0
    5.3174   -1.7431    1.3324 H   0  0  0  0  0  0  0  0  0  0  0  0
    3.9268   -2.2166    2.3131 H   0  0  0  0  0  0  0  0  0  0  0  0
    5.0794   -1.0249    2.9314 H   0  0  0  0  0  0  0  0  0  0  0  0
    1.8621    1.4650   -0.5453 H   0  0  0  0  0  0  0  0  0  0  0  0
   -2.8056   -0.0853    0.0157 H   0  0  0  0  0  0  0  0  0  0  0  0
   -0.9854   -2.9189   -1.6851 H   0  0  0  0  0  0  0  0  0  0  0  0
    7.0649    0.9587   -2.3387 H   0  0  0  0  0  0  0  0  0  0  0  0
   -2.6078   -1.9444    2.6171 H   0  0  0  0  0  0  0  0  0  0  0  0
   -4.4916   -4.2717   -1.3407 H   0  0  0  0  0  0  0  0  0  0  0  0
   -2.6231   -5.3952   -2.3762 H   0  0  0  0  0  0  0  0  0  0  0  0
   -1.0425   -4.9232   -3.0118 H   0  0  0  0  0  0  0  0  0  0  0  0
   -1.2125   -5.3663   -1.3058 H   0  0  0  0  0  0  0  0  0  0  0  0
   -3.5899   -3.1169   -3.2578 H   0  0  0  0  0  0  0  0  0  0  0  0
   -2.8083   -1.6079   -2.7595 H   0  0  0  0  0  0  0  0  0  0  0  0
   -1.9793   -2.7146   -3.8653 H   0  0  0  0  0  0  0  0  0  0  0  0
   -4.8912   -2.8835    2.6921 H   0  0  0  0  0  0  0  0  0  0  0  0
   -5.8269   -4.0459    0.7105 H   0  0  0  0  0  0  0  0  0  0  0  0
   -2.8119    1.8359   -2.8562 H   0  0  0  0  0  0  0  0  0  0  0  0
    9.3752    0.2517   -2.2002 H   0  0  0  0  0  0  0  0  0  0  0  0
    9.2904    0.1886   -0.3512 H   0  0  0  0  0  0  0  0  0  0  0  0
   -4.7089    4.6544    0.7622 H   0  0  0  0  0  0  0  0  0  0  0  0
   -4.7403    3.3045   -3.3044 H   0  0  0  0  0  0  0  0  0  0  0  0
   -5.6866    4.7120   -1.4943 H   0  0  0  0  0  0  0  0  0  0  0  0
  1 26  1  0  0  0  0
  2 40  1  0  0  0  0
  3 40  1  0  0  0  0
  4 40  1  0  0  0  0
  5 19  2  0  0  0  0
  6 21  2  0  0  0  0
  7 11  1  0  0  0  0
  7 13  1  0  0  0  0
  7 15  1  0  0  0  0
  8 12  1  0  0  0  0
  8 14  1  0  0  0  0
  8 19  1  0  0  0  0
  9 18  1  0  0  0  0
  9 21  1  0  0  0  0
  9 22  1  0  0  0  0
 10 15  2  0  0  0  0
 10 21  1  0  0  0  0
 11 12  1  0  0  0  0
 11 16  1  0  0  0  0
 11 43  1  0  0  0  0
 12 44  1  0  0  0  0
 12 45  1  0  0  0  0
 13 14  1  0  0  0  0
 13 46  1  0  0  0  0
 13 47  1  0  0  0  0
 14 48  1  0  0  0  0
 14 49  1  0  0  0  0
 15 17  1  0  0  0  0
 16 50  1  0  0  0  0
 16 51  1  0  0  0  0
 16 52  1  0  0  0  0
 17 18  1  0  0  0  0
 17 20  2  0  0  0  0
 18 23  2  0  0  0  0
 19 28  1  0  0  0  0
 20 26  1  0  0  0  0
 20 53  1  0  0  0  0
 22 25  1  0  0  0  0
 22 30  2  0  0  0  0
 23 24  1  0  0  0  0
 23 54  1  0  0  0  0
 24 26  2  0  0  0  0
 24 29  1  0  0  0  0
 25 27  1  0  0  0  0
 25 31  2  0  0  0  0
 27 32  1  0  0  0  0
 27 33  1  0  0  0  0
 27 55  1  0  0  0  0
 28 38  2  0  0  0  0
 28 56  1  0  0  0  0
 29 35  1  0  0  0  0
 29 37  2  0  0  0  0
 30 34  1  0  0  0  0
 30 57  1  0  0  0  0
 31 36  1  0  0  0  0
 31 58  1  0  0  0  0
 32 59  1  0  0  0  0
 32 60  1  0  0  0  0
 32 61  1  0  0  0  0
 33 62  1  0  0  0  0
 33 63  1  0  0  0  0
 33 64  1  0  0  0  0
 34 36  2  0  0  0  0
 34 65  1  0  0  0  0
 35 39  2  0  0  0  0
 35 40  1  0  0  0  0
 36 66  1  0  0  0  0
 37 41  1  0  0  0  0
 37 67  1  0  0  0  0
 38 68  1  0  0  0  0
 38 69  1  0  0  0  0
 39 42  1  0  0  0  0
 39 70  1  0  0  0  0
 41 42  2  0  0  0  0
 41 71  1  0  0  0  0
 42 72  1  0  0  0  0
M  END
> <PUBCHEM_COMPOUND_CID>
146254417

> <PUBCHEM_CONFORMER_RMSD>
1

> <PUBCHEM_CONFORMER_DIVERSEORDER>
2
38
17
13
35
30
27
21
33
29
8
20
24
10
36
16
34
31
37
7
19
22
32
28
11
18
9
14
1
26
12
23
3
5
15
6
4
25

> <PUBCHEM_MMFF94_PARTIAL_CHARGES>
50
1 -0.18
10 -0.66
11 0.37
12 0.3
13 0.37
14 0.3
15 0.41
17 0.09
18 0.12
19 0.62
2 -0.34
20 -0.15
21 0.84
22 0.12
23 -0.15
25 -0.14
26 0.18
27 0.14
28 -0.14
3 -0.34
30 -0.15
31 -0.15
34 -0.15
35 -0.14
36 -0.15
37 -0.15
38 -0.3
39 -0.15
4 -0.34
40 1.16
41 -0.15
42 -0.15
5 -0.57
53 0.15
54 0.15
56 0.15
57 0.15
58 0.15
6 -0.57
65 0.15
66 0.15
67 0.15
68 0.15
69 0.15
7 -0.79
70 0.15
71 0.15
72 0.15
8 -0.66
9 -0.29

> <PUBCHEM_EFFECTIVE_ROTOR_COUNT>
8.2

> <PUBCHEM_PHARMACOPHORE_FEATURES>
10
1 10 donor
1 38 hydrophobe
1 5 acceptor
1 6 acceptor
3 27 32 33 hydrophobe
6 17 18 20 23 24 26 rings
6 22 25 30 31 34 36 rings
6 29 35 37 39 41 42 rings
6 7 8 11 12 13 14 rings
6 9 10 15 17 18 21 rings

> <PUBCHEM_HEAVY_ATOM_COUNT>
42

> <PUBCHEM_ATOM_DEF_STEREO_COUNT>
1

> <PUBCHEM_ATOM_UDEF_STEREO_COUNT>
0

> <PUBCHEM_BOND_DEF_STEREO_COUNT>
0

> <PUBCHEM_BOND_UDEF_STEREO_COUNT>
0

> <PUBCHEM_ISOTOPIC_ATOM_COUNT>
0

> <PUBCHEM_COMPONENT_COUNT>
1

> <PUBCHEM_CACTVS_TAUTO_COUNT>
-1

> <PUBCHEM_CONFORMER_ID>
08B7AA5100000002

> <PUBCHEM_MMFF94_ENERGY>
159.3659

> <PUBCHEM_FEATURE_SELFOVERLAP>
50.771

> <PUBCHEM_SHAPE_FINGERPRINT>
10010297 198 17749955445408203514
10815517 723 18269006438563660978
11062273 19 17470457690703353198
11062273 23 18411696617015930643
11115154 58 17985245599703683191
11135609 187 18191012418724896141
11331351 85 18128264582469120814
11621639 254 18047767180827983268
12156800 1 17977425752351924775
12160290 23 18410283692839269811
12440605 4 18261392200414428667
12741549 16 17387692932934875695
12788726 201 18337385049694743594
13140716 1 18189049794537196186
13540713 5 18114447986854366018
13690498 29 18341617083224689158
13782708 43 12605388977469945837
13911987 19 18190737544427292652
140371 6 18117289257664710186
14068700 675 18118962731119697766
14118638 360 18114177575934910162
14294032 229 18335707130420369433
14955137 171 17906179803653376851
15276724 80 18410295834485254506
15324884 4 17246420798075011041
15439362 3 17975692792866008132
15484559 13 17832408818617140581
15815584 197 16318645022288562819
16114785 44 18409457981002831027
17138139 8 17838010951010146765
19309040 13 17199122011314478361
20587220 17 17266680356959891577
20766409 102 18048325732814586148
21927370 108 17969519266756633195
22122407 14 14201391738483842254
23929065 36 18268693078350806736
2747138 104 18117565252457953858
283562 15 18335984254632607155
376196 1 16377455820272525693
4258327 124 18040719151646984340
4403749 210 18188495671147990145
469060 322 18114758112818903833
504843 32 18188769445063112181
5080951 261 18272366499037782286
508180 173 17978480321769339751
5171179 24 17983561185594913785
5912855 24 18334572417715577786
6677587 24 16233313200804267373
9896288 288 18341907267872973387

> <PUBCHEM_SHAPE_MULTIPOLES>
812.73
14.54
7.07
2.29
39.19
0.16
-0.27
4.82
-2.65
-15.01
-0.75
-1.56
-0.21
-0.4

> <PUBCHEM_SHAPE_SELFOVERLAP>
1769.02

> <PUBCHEM_SHAPE_VOLUME>
445.4

> <PUBCHEM_COORDINATE_TYPE>
2
5
10

$$$$
137288869
  -OEChem-05102415023D

 66 70  0     0  0  0  0  0  0999 V2000
    0.2995    4.0947   -0.1968 Cl  0  0  0  0  0  0  0  0  0  0  0  0
    2.9448    2.7455    2.3494 F   0  0  0  0  0  0  0  0  0  0  0  0
   -7.7178    0.8761    1.1644 O   0  0  0  0  0  0  0  0  0  0  0  0
   -0.3657   -3.7814    0.7034 O   0  0  0  0  0  0  0  0  0  0  0  0
    2.9781    2.1769   -2.3987 O   0  0  0  0  0  0  0  0  0  0  0  0
   -3.0204   -0.1351    0.2043 N   0  0  0  0  0  0  0  0  0  0  0  0
   -5.8399   -0.0507    0.1525 N   0  0  0  0  0  0  0  0  0  0  0  0
    0.7535   -1.7645    0.5075 N   0  0  0  0  0  0  0  0  0  0  0  0
   -1.6388   -1.9502    0.4135 N   0  0  0  0  0  0  0  0  0  0  0  0
    1.7925    0.4107    0.2414 N   0  0  0  0  0  0  0  0  0  0  0  0
   -3.6941    0.0544   -1.0779 C   0  0  0  0  0  0  0  0  0  0  0  0
   -3.7335    0.3921    1.3651 C   0  0  0  0  0  0  0  0  0  0  0  0
   -5.1025   -0.5385   -1.0239 C   0  0  0  0  0  0  0  0  0  0  0  0
   -5.1297   -0.2188    1.4245 C   0  0  0  0  0  0  0  0  0  0  0  0
   -1.7780   -0.6607    0.2969 C   0  0  0  0  0  0  0  0  0  0  0  0
   -0.5950    0.2286    0.2564 C   0  0  0  0  0  0  0  0  0  0  0  0
    0.6685   -0.3460    0.3512 C   0  0  0  0  0  0  0  0  0  0  0  0
   -7.1286    0.4760    0.1588 C   0  0  0  0  0  0  0  0  0  0  0  0
    2.0545   -2.3619    0.6242 C   0  0  0  0  0  0  0  0  0  0  0  0
    2.7506   -2.7872   -0.5074 C   0  0  0  0  0  0  0  0  0  0  0  0
   -0.4102   -2.5608    0.5340 C   0  0  0  0  0  0  0  0  0  0  0  0
    2.1685   -2.6367   -1.8753 C   0  0  0  0  0  0  0  0  0  0  0  0
   -0.7018    1.6135    0.0898 C   0  0  0  0  0  0  0  0  0  0  0  0
    1.6603    1.7451    0.0810 C   0  0  0  0  0  0  0  0  0  0  0  0
    0.4451    2.3903    0.0054 C   0  0  0  0  0  0  0  0  0  0  0  0
    2.6211   -2.5141    1.8897 C   0  0  0  0  0  0  0  0  0  0  0  0
    4.0132   -3.3649   -0.3734 C   0  0  0  0  0  0  0  0  0  0  0  0
    1.9501   -3.9921   -2.5716 C   0  0  0  0  0  0  0  0  0  0  0  0
    3.0129   -1.7150   -2.7736 C   0  0  0  0  0  0  0  0  0  0  0  0
   -7.8448    0.5575   -1.1298 C   0  0  0  0  0  0  0  0  0  0  0  0
    3.8837   -3.0918    2.0238 C   0  0  0  0  0  0  0  0  0  0  0  0
    2.9252    2.4412   -0.0099 C   0  0  0  0  0  0  0  0  0  0  0  0
    4.5797   -3.5174    0.8923 C   0  0  0  0  0  0  0  0  0  0  0  0
    3.5427    2.6358   -1.2454 C   0  0  0  0  0  0  0  0  0  0  0  0
    3.5264    2.9211    1.1537 C   0  0  0  0  0  0  0  0  0  0  0  0
   -8.7393    1.5314   -1.3095 C   0  0  0  0  0  0  0  0  0  0  0  0
    4.7616    3.3105   -1.3174 C   0  0  0  0  0  0  0  0  0  0  0  0
    4.7453    3.5959    1.0817 C   0  0  0  0  0  0  0  0  0  0  0  0
    5.3627    3.7908   -0.1539 C   0  0  0  0  0  0  0  0  0  0  0  0
   -3.1295   -0.4178   -1.8905 H   0  0  0  0  0  0  0  0  0  0  0  0
   -3.7481    1.1275   -1.2981 H   0  0  0  0  0  0  0  0  0  0  0  0
   -3.8026    1.4834    1.2824 H   0  0  0  0  0  0  0  0  0  0  0  0
   -3.1941    0.1657    2.2922 H   0  0  0  0  0  0  0  0  0  0  0  0
   -5.0529   -1.6304   -0.9350 H   0  0  0  0  0  0  0  0  0  0  0  0
   -5.6153   -0.3039   -1.9575 H   0  0  0  0  0  0  0  0  0  0  0  0
   -5.0653   -1.2978    1.6113 H   0  0  0  0  0  0  0  0  0  0  0  0
   -5.6936    0.2237    2.2516 H   0  0  0  0  0  0  0  0  0  0  0  0
    1.1783   -2.1719   -1.8312 H   0  0  0  0  0  0  0  0  0  0  0  0
   -1.6744    2.0917    0.0143 H   0  0  0  0  0  0  0  0  0  0  0  0
    2.0882   -2.1866    2.7787 H   0  0  0  0  0  0  0  0  0  0  0  0
    4.5757   -3.7040   -1.2388 H   0  0  0  0  0  0  0  0  0  0  0  0
    2.8944   -4.5100   -2.7705 H   0  0  0  0  0  0  0  0  0  0  0  0
    1.4403   -3.8527   -3.5313 H   0  0  0  0  0  0  0  0  0  0  0  0
    1.3288   -4.6506   -1.9543 H   0  0  0  0  0  0  0  0  0  0  0  0
    3.9985   -2.1412   -2.9893 H   0  0  0  0  0  0  0  0  0  0  0  0
    3.1662   -0.7408   -2.2974 H   0  0  0  0  0  0  0  0  0  0  0  0
    2.5087   -1.5450   -3.7312 H   0  0  0  0  0  0  0  0  0  0  0  0
   -7.6822   -0.1834   -1.9012 H   0  0  0  0  0  0  0  0  0  0  0  0
    4.3249   -3.2103    3.0091 H   0  0  0  0  0  0  0  0  0  0  0  0
    5.5627   -3.9671    0.9969 H   0  0  0  0  0  0  0  0  0  0  0  0
   -8.9447    2.2881   -0.5602 H   0  0  0  0  0  0  0  0  0  0  0  0
   -9.2912    1.5935   -2.2417 H   0  0  0  0  0  0  0  0  0  0  0  0
    5.2546    3.4696   -2.2728 H   0  0  0  0  0  0  0  0  0  0  0  0
    5.2128    3.9701    1.9876 H   0  0  0  0  0  0  0  0  0  0  0  0
    6.3115    4.3163   -0.2097 H   0  0  0  0  0  0  0  0  0  0  0  0
    3.5547    2.4033   -3.1485 H   0  0  0  0  0  0  0  0  0  0  0  0
  1 25  1  0  0  0  0
  2 35  1  0  0  0  0
  3 18  2  0  0  0  0
  4 21  2  0  0  0  0
  5 34  1  0  0  0  0
  5 66  1  0  0  0  0
  6 11  1  0  0  0  0
  6 12  1  0  0  0  0
  6 15  1  0  0  0  0
  7 13  1  0  0  0  0
  7 14  1  0  0  0  0
  7 18  1  0  0  0  0
  8 17  1  0  0  0  0
  8 19  1  0  0  0  0
  8 21  1  0  0  0  0
  9 15  2  0  0  0  0
  9 21  1  0  0  0  0
 10 17  2  0  0  0  0
 10 24  1  0  0  0  0
 11 13  1  0  0  0  0
 11 40  1  0  0  0  0
 11 41  1  0  0  0  0
 12 14  1  0  0  0  0
 12 42  1  0  0  0  0
 12 43  1  0  0  0  0
 13 44  1  0  0  0  0
 13 45  1  0  0  0  0
 14 46  1  0  0  0  0
 14 47  1  0  0  0  0
 15 16  1  0  0  0  0
 16 17  1  0  0  0  0
 16 23  2  0  0  0  0
 18 30  1  0  0  0  0
 19 20  1  0  0  0  0
 19 26  2  0  0  0  0
 20 22  1  0  0  0  0
 20 27  2  0  0  0  0
 22 28  1  0  0  0  0
 22 29  1  0  0  0  0
 22 48  1  0  0  0  0
 23 25  1  0  0  0  0
 23 49  1  0  0  0  0
 24 25  2  0  0  0  0
 24 32  1  0  0  0  0
 26 31  1  0  0  0  0
 26 50  1  0  0  0  0
 27 33  1  0  0  0  0
 27 51  1  0  0  0  0
 28 52  1  0  0  0  0
 28 53  1  0  0  0  0
 28 54  1  0  0  0  0
 29 55  1  0  0  0  0
 29 56  1  0  0  0  0
 29 57  1  0  0  0  0
 30 36  2  0  0  0  0
 30 58  1  0  0  0  0
 31 33  2  0  0  0  0
 31 59  1  0  0  0  0
 32 34  2  0  0  0  0
 32 35  1  0  0  0  0
 33 60  1  0  0  0  0
 34 37  1  0  0  0  0
 35 38  2  0  0  0  0
 36 61  1  0  0  0  0
 36 62  1  0  0  0  0
 37 39  2  0  0  0  0
 37 63  1  0  0  0  0
 38 39  1  0  0  0  0
 38 64  1  0  0  0  0
 39 65  1  0  0  0  0
M  END
> <PUBCHEM_COMPOUND_CID>
137288869

> <PUBCHEM_CONFORMER_RMSD>
1

> <PUBCHEM_CONFORMER_DIVERSEORDER>
1
8
11
5
9
13
12
10
14
4
7
6
3
2

> <PUBCHEM_MMFF94_PARTIAL_CHARGES>
48
1 -0.18
10 -0.62
11 0.37
12 0.37
13 0.3
14 0.3
15 0.41
16 0.09
17 0.43
18 0.62
19 0.12
2 -0.19
20 -0.14
21 0.84
22 0.14
23 -0.15
24 0.31
25 0.18
26 -0.15
27 -0.15
3 -0.57
30 -0.14
31 -0.15
33 -0.15
34 0.08
35 0.19
36 -0.3
37 -0.15
38 -0.15
39 -0.15
4 -0.57
49 0.15
5 -0.53
50 0.15
51 0.15
58 0.15
59 0.15
6 -0.79
60 0.15
61 0.15
62 0.15
63 0.15
64 0.15
65 0.15
66 0.45
7 -0.66
8 -0.29
9 -0.66

> <PUBCHEM_EFFECTIVE_ROTOR_COUNT>
7.2

> <PUBCHEM_PHARMACOPHORE_FEATURES>
11
1 3 acceptor
1 36 hydrophobe
1 4 acceptor
1 5 donor
1 9 donor
3 22 28 29 hydrophobe
6 10 16 17 23 24 25 rings
6 19 20 26 27 31 33 rings
6 32 34 35 37 38 39 rings
6 6 7 11 12 13 14 rings
6 8 9 15 16 17 21 rings

> <PUBCHEM_HEAVY_ATOM_COUNT>
39

> <PUBCHEM_ATOM_DEF_STEREO_COUNT>
0

> <PUBCHEM_ATOM_UDEF_STEREO_COUNT>
0

> <PUBCHEM_BOND_DEF_STEREO_COUNT>
0

> <PUBCHEM_BOND_UDEF_STEREO_COUNT>
0

> <PUBCHEM_ISOTOPIC_ATOM_COUNT>
0

> <PUBCHEM_COMPONENT_COUNT>
1

> <PUBCHEM_CACTVS_TAUTO_COUNT>
-1

> <PUBCHEM_CONFORMER_ID>
082EDCA500000001

> <PUBCHEM_MMFF94_ENERGY>
150.7131

> <PUBCHEM_FEATURE_SELFOVERLAP>
55.85

> <PUBCHEM_SHAPE_FINGERPRINT>
10079526 769 17915756296564392155
10169797 241 18263938661086010715
10554248 39 18200582615546334013
10721379 63 18340776961635490354
11093857 5 17168724036837832835
11297010 23 18340764931084325180
11297750 10 17751627767906952484
11578080 2 17895484733548055774
11763715 3 17685222673233286850
12156800 1 14853825290838132998
12160290 23 16965783546129544562
12597179 24 18268156537898061430
133893 2 18336281058763808912
13540713 4 18188505669525790107
13782708 43 17822302271518984891
14118638 360 18341047545345771991
15420108 30 18056745740744642298
15439362 3 18335698377588068136
15927050 60 18265897041123881499
1813 80 18127979598467452863
20554085 129 18058438975729800840
21033648 29 17458063764634807609
21133410 230 17103445043786441146
21133665 82 18122918792365887492
22311459 1 17760080723297411073
24771293 8 18200873959276560114
249057 25 17846217701568222345
25223398 141 17096922457051955879
3298306 158 18193562383456607830
3411729 13 18335419101249465417
4066623 53 18115306661963746949
469060 322 17906463129823769938
513532 50 18201723976417414212
5265222 85 17684947082024135404
5385378 56 18335983155025760825
6669772 16 18261114123014992762
6700243 42 16407636328350211822

> <PUBCHEM_SHAPE_MULTIPOLES>
754.68
15.99
6.13
2.01
45.57
0.35
0.77
7.65
1.79
-13.5
0.33
-1.64
-1.01
0.23

> <PUBCHEM_SHAPE_SELFOVERLAP>
1644.226

> <PUBCHEM_SHAPE_VOLUME>
412

> <PUBCHEM_COORDINATE_TYPE>
2
5
10

$$$$
146234885
  -OEChem-05102415023D

 70 74  0     1  0  0  0  0  0999 V2000
    0.2091   -3.5854   -0.0282 F   0  0  0  0  0  0  0  0  0  0  0  0
   -1.7759   -3.5331   -2.0721 F   0  0  0  0  0  0  0  0  0  0  0  0
    7.4293   -0.6459   -1.2715 O   0  0  0  0  0  0  0  0  0  0  0  0
   -0.2379    3.9698    0.4213 O   0  0  0  0  0  0  0  0  0  0  0  0
   -3.2981   -1.9955    2.1925 O   0  0  0  0  0  0  0  0  0  0  0  0
    2.9534    0.7541    0.1166 N   0  0  0  0  0  0  0  0  0  0  0  0
    5.4385   -0.5921   -0.0696 N   0  0  0  0  0  0  0  0  0  0  0  0
   -1.0319    1.7970    0.3358 N   0  0  0  0  0  0  0  0  0  0  0  0
    1.3040    2.3439    0.2296 N   0  0  0  0  0  0  0  0  0  0  0  0
   -1.7215   -0.5237    0.1889 N   0  0  0  0  0  0  0  0  0  0  0  0
   -4.4700    2.8189   -0.6547 N   0  0  0  0  0  0  0  0  0  0  0  0
   -4.3501    2.7087    1.7496 N   0  0  0  0  0  0  0  0  0  0  0  0
    3.6814    0.7888   -1.1591 C   0  0  2  0  0  0  0  0  0  0  0  0
    4.6181   -0.4177   -1.2675 C   0  0  0  0  0  0  0  0  0  0  0  0
    3.7355    0.5288    1.3326 C   0  0  0  0  0  0  0  0  0  0  0  0
    4.6754   -0.6643    1.1807 C   0  0  0  0  0  0  0  0  0  0  0  0
    1.6410    1.0869    0.1829 C   0  0  0  0  0  0  0  0  0  0  0  0
    4.4296    2.1139   -1.3075 C   0  0  0  0  0  0  0  0  0  0  0  0
    0.6091    0.0250    0.1922 C   0  0  0  0  0  0  0  0  0  0  0  0
    6.8195   -0.7117   -0.2027 C   0  0  0  0  0  0  0  0  0  0  0  0
   -0.7283    0.4021    0.2566 C   0  0  0  0  0  0  0  0  0  0  0  0
    0.9293   -1.3338    0.1017 C   0  0  0  0  0  0  0  0  0  0  0  0
   -0.0048    2.7634    0.3182 C   0  0  0  0  0  0  0  0  0  0  0  0
   -2.4103    2.1921    0.4215 C   0  0  0  0  0  0  0  0  0  0  0  0
   -3.1738    2.4472   -0.6993 C   0  0  0  0  0  0  0  0  0  0  0  0
    7.6123   -0.9372    1.0223 C   0  0  0  0  0  0  0  0  0  0  0  0
   -0.0835   -2.2817    0.0607 C   0  0  0  0  0  0  0  0  0  0  0  0
   -2.5853    2.3184   -2.0664 C   0  0  0  0  0  0  0  0  0  0  0  0
   -1.3842   -1.8284    0.1017 C   0  0  0  0  0  0  0  0  0  0  0  0
   -3.0576    2.3403    1.6312 C   0  0  0  0  0  0  0  0  0  0  0  0
   -2.5003   -2.7421    0.0511 C   0  0  0  0  0  0  0  0  0  0  0  0
   -2.5837    3.6540   -2.8320 C   0  0  0  0  0  0  0  0  0  0  0  0
   -3.2837    1.2332   -2.9059 C   0  0  0  0  0  0  0  0  0  0  0  0
   -2.3361    2.0904    2.9154 C   0  0  0  0  0  0  0  0  0  0  0  0
    8.8632   -0.4752    1.0748 C   0  0  0  0  0  0  0  0  0  0  0  0
   -4.9873    2.9289    0.5838 C   0  0  0  0  0  0  0  0  0  0  0  0
   -3.4217   -2.7978    1.0967 C   0  0  0  0  0  0  0  0  0  0  0  0
   -2.6527   -3.5743   -1.0580 C   0  0  0  0  0  0  0  0  0  0  0  0
   -4.4955   -3.6858    1.0333 C   0  0  0  0  0  0  0  0  0  0  0  0
   -3.7265   -4.4621   -1.1213 C   0  0  0  0  0  0  0  0  0  0  0  0
   -4.6479   -4.5179   -0.0756 C   0  0  0  0  0  0  0  0  0  0  0  0
    2.9629    0.7225   -1.9869 H   0  0  0  0  0  0  0  0  0  0  0  0
    4.0282   -1.3368   -1.3732 H   0  0  0  0  0  0  0  0  0  0  0  0
    5.2406   -0.3372   -2.1649 H   0  0  0  0  0  0  0  0  0  0  0  0
    3.0754    0.3574    2.1916 H   0  0  0  0  0  0  0  0  0  0  0  0
    4.3144    1.4333    1.5535 H   0  0  0  0  0  0  0  0  0  0  0  0
    5.3210   -0.7098    2.0585 H   0  0  0  0  0  0  0  0  0  0  0  0
    4.1045   -1.5993    1.1478 H   0  0  0  0  0  0  0  0  0  0  0  0
    5.1878    2.2483   -0.5291 H   0  0  0  0  0  0  0  0  0  0  0  0
    3.7399    2.9623   -1.2458 H   0  0  0  0  0  0  0  0  0  0  0  0
    4.9349    2.1635   -2.2778 H   0  0  0  0  0  0  0  0  0  0  0  0
    1.9573   -1.6749    0.0478 H   0  0  0  0  0  0  0  0  0  0  0  0
    7.2072   -1.5071    1.8477 H   0  0  0  0  0  0  0  0  0  0  0  0
   -1.5347    2.0145   -2.0162 H   0  0  0  0  0  0  0  0  0  0  0  0
   -3.6021    4.0166   -3.0106 H   0  0  0  0  0  0  0  0  0  0  0  0
   -2.0483    4.4246   -2.2663 H   0  0  0  0  0  0  0  0  0  0  0  0
   -2.0899    3.5438   -3.8034 H   0  0  0  0  0  0  0  0  0  0  0  0
   -4.3350    1.4813   -3.0896 H   0  0  0  0  0  0  0  0  0  0  0  0
   -2.7904    1.1166   -3.8768 H   0  0  0  0  0  0  0  0  0  0  0  0
   -3.2533    0.2652   -2.3936 H   0  0  0  0  0  0  0  0  0  0  0  0
   -2.9906    2.2803    3.7731 H   0  0  0  0  0  0  0  0  0  0  0  0
   -2.0060    1.0489    2.9782 H   0  0  0  0  0  0  0  0  0  0  0  0
   -1.4703    2.7532    3.0105 H   0  0  0  0  0  0  0  0  0  0  0  0
    9.4685   -0.6523    1.9579 H   0  0  0  0  0  0  0  0  0  0  0  0
    9.3172    0.0888    0.2674 H   0  0  0  0  0  0  0  0  0  0  0  0
   -6.0267    3.2260    0.6491 H   0  0  0  0  0  0  0  0  0  0  0  0
   -5.2215   -3.7405    1.8401 H   0  0  0  0  0  0  0  0  0  0  0  0
   -3.8450   -5.1099   -1.9849 H   0  0  0  0  0  0  0  0  0  0  0  0
   -5.4840   -5.2093   -0.1252 H   0  0  0  0  0  0  0  0  0  0  0  0
   -4.0312   -2.1770    2.8053 H   0  0  0  0  0  0  0  0  0  0  0  0
  1 27  1  0  0  0  0
  2 38  1  0  0  0  0
  3 20  2  0  0  0  0
  4 23  2  0  0  0  0
  5 37  1  0  0  0  0
  5 70  1  0  0  0  0
  6 13  1  0  0  0  0
  6 15  1  0  0  0  0
  6 17  1  0  0  0  0
  7 14  1  0  0  0  0
  7 16  1  0  0  0  0
  7 20  1  0  0  0  0
  8 21  1  0  0  0  0
  8 23  1  0  0  0  0
  8 24  1  0  0  0  0
  9 17  2  0  0  0  0
  9 23  1  0  0  0  0
 10 21  2  0  0  0  0
 10 29  1  0  0  0  0
 11 25  2  0  0  0  0
 11 36  1  0  0  0  0
 12 30  1  0  0  0  0
 12 36  2  0  0  0  0
 13 14  1  0  0  0  0
 13 18  1  0  0  0  0
 13 42  1  0  0  0  0
 14 43  1  0  0  0  0
 14 44  1  0  0  0  0
 15 16  1  0  0  0  0
 15 45  1  0  0  0  0
 15 46  1  0  0  0  0
 16 47  1  0  0  0  0
 16 48  1  0  0  0  0
 17 19  1  0  0  0  0
 18 49  1  0  0  0  0
 18 50  1  0  0  0  0
 18 51  1  0  0  0  0
 19 21  1  0  0  0  0
 19 22  2  0  0  0  0
 20 26  1  0  0  0  0
 22 27  1  0  0  0  0
 22 52  1  0  0  0  0
 24 25  1  0  0  0  0
 24 30  2  0  0  0  0
 25 28  1  0  0  0  0
 26 35  2  0  0  0  0
 26 53  1  0  0  0  0
 27 29  2  0  0  0  0
 28 32  1  0  0  0  0
 28 33  1  0  0  0  0
 28 54  1  0  0  0  0
 29 31  1  0  0  0  0
 30 34  1  0  0  0  0
 31 37  2  0  0  0  0
 31 38  1  0  0  0  0
 32 55  1  0  0  0  0
 32 56  1  0  0  0  0
 32 57  1  0  0  0  0
 33 58  1  0  0  0  0
 33 59  1  0  0  0  0
 33 60  1  0  0  0  0
 34 61  1  0  0  0  0
 34 62  1  0  0  0  0
 34 63  1  0  0  0  0
 35 64  1  0  0  0  0
 35 65  1  0  0  0  0
 36 66  1  0  0  0  0
 37 39  1  0  0  0  0
 38 40  2  0  0  0  0
 39 41  2  0  0  0  0
 39 67  1  0  0  0  0
 40 41  1  0  0  0  0
 40 68  1  0  0  0  0
 41 69  1  0  0  0  0
M  END
> <PUBCHEM_COMPOUND_CID>
146234885

> <PUBCHEM_CONFORMER_RMSD>
1

> <PUBCHEM_CONFORMER_DIVERSEORDER>
2
5
25
26
44
35
34
30
28
37
36
33
31
21
16
22
24
17
27
38
39
20
40
43
12
32
23
8
18
29
13
41
14
42
7
10
11
15
9
19
4
1
3
6

> <PUBCHEM_MMFF94_PARTIAL_CHARGES>
46
1 -0.19
10 -0.62
11 -0.62
12 -0.62
13 0.37
14 0.3
15 0.37
16 0.3
17 0.41
19 0.09
2 -0.19
20 0.62
21 0.43
22 -0.15
23 0.84
24 0.12
25 0.17
26 -0.14
27 0.19
28 0.14
29 0.31
3 -0.57
30 0.17
34 0.14
35 -0.3
36 0.47
37 0.08
38 0.19
39 -0.15
4 -0.57
40 -0.15
41 -0.15
5 -0.53
52 0.15
53 0.15
6 -0.79
64 0.15
65 0.15
66 0.15
67 0.15
68 0.15
69 0.15
7 -0.66
70 0.45
8 -0.29
9 -0.66

> <PUBCHEM_EFFECTIVE_ROTOR_COUNT>
7.2

> <PUBCHEM_PHARMACOPHORE_FEATURES>
13
1 11 acceptor
1 3 acceptor
1 35 hydrophobe
1 4 acceptor
1 5 donor
1 9 donor
3 11 12 36 cation
3 28 32 33 hydrophobe
6 10 19 21 22 27 29 rings
6 11 12 24 25 30 36 rings
6 31 37 38 39 40 41 rings
6 6 7 13 14 15 16 rings
6 8 9 17 19 21 23 rings

> <PUBCHEM_HEAVY_ATOM_COUNT>
41

> <PUBCHEM_ATOM_DEF_STEREO_COUNT>
1

> <PUBCHEM_ATOM_UDEF_STEREO_COUNT>
0

> <PUBCHEM_BOND_DEF_STEREO_COUNT>
0

> <PUBCHEM_BOND_UDEF_STEREO_COUNT>
0

> <PUBCHEM_ISOTOPIC_ATOM_COUNT>
0

> <PUBCHEM_COMPONENT_COUNT>
1

> <PUBCHEM_CACTVS_TAUTO_COUNT>
-1

> <PUBCHEM_CONFORMER_ID>
08B75E0500000002

> <PUBCHEM_MMFF94_ENERGY>
151.2399

> <PUBCHEM_FEATURE_SELFOVERLAP>
65.999

> <PUBCHEM_SHAPE_FINGERPRINT>
10050765 1 18339926034463281528
10119406 146 18126005958475038334
11331351 85 18055637476337910311
11991303 11 18188485766340729071
12156800 1 18050044161760027525
12160290 23 18265877194606715289
12633046 712 18272932739406326440
12788726 201 18195815286813442642
13140716 1 18412547621730724872
13540713 4 18197478801120940624
13540713 5 18263094360969049348
13583140 156 16950854600343821536
13690498 29 18334857272757638990
13692114 37 18272931610151090209
13692115 27 18338233898530646698
13911987 19 18192138301093043525
14068700 675 18269556215947389211
14118638 360 18189056572591285372
14347332 77 18337955709515160414
14856354 85 16009900254242813088
14866123 147 18411426124112372723
14955137 171 17833561463481481499
15021287 119 17168148932005221412
15276724 80 18194692689805029124
15324884 4 17466547450183590137
15439362 3 17905602207992565142
15484559 13 17833520454811200693
19301679 30 18267870664685734506
19311894 1 18410856547071723640
20766409 102 18194404627277596204
21033648 29 12749868137726410490
22223350 30 18342167869509358704
22311459 1 18338519617330951056
23559900 14 18343293761601992656
23576562 1 18041006167073595500
244849 19 17131251559201864818
3383291 50 18272930518723208911
3504750 166 18413668024433057398
354706 35 17973421236630445493
4073 2 18202281382517491986
4409770 3 18342455950567776051
4516262 110 17839184005205943113
469060 322 17895483643142878681
484985 159 18411136944064364555
504843 32 18262514772163954509
5080951 261 18411125936115659670
513202 73 18335709389610525739
5171179 24 18127689542024642633
550186 7 16155114863825894101
6669772 16 18055918692772298638
6691757 9 18200878378992936984
6698420 124 17914628163121633400
70251023 43 18049724319270878659

> <PUBCHEM_SHAPE_MULTIPOLES>
776.74
15.22
6.11
2.13
40.3
3.39
0.44
5.27
-1.51
-13.04
1.13
-2.04
-1.38
-0.46

> <PUBCHEM_SHAPE_SELFOVERLAP>
1699.924

> <PUBCHEM_SHAPE_VOLUME>
420.7

> <PUBCHEM_COORDINATE_TYPE>
2
5
10

$$$$
137297911
  -OEChem-05102415023D

 70 74  0     1  0  0  0  0  0999 V2000
    0.2542    3.8646   -0.3719 Cl  0  0  0  0  0  0  0  0  0  0  0  0
   -2.4227    3.1413    2.3769 F   0  0  0  0  0  0  0  0  0  0  0  0
    7.4195    0.7253    0.9287 O   0  0  0  0  0  0  0  0  0  0  0  0
   -0.2671   -4.0054    0.8989 O   0  0  0  0  0  0  0  0  0  0  0  0
   -2.8612    2.5114   -2.3433 O   0  0  0  0  0  0  0  0  0  0  0  0
    2.8524   -0.7753    0.2535 N   0  0  0  0  0  0  0  0  0  0  0  0
    5.3205    0.5542   -0.0531 N   0  0  0  0  0  0  0  0  0  0  0  0
   -1.1136   -1.8816    0.5421 N   0  0  0  0  0  0  0  0  0  0  0  0
    1.2387   -2.3584    0.6157 N   0  0  0  0  0  0  0  0  0  0  0  0
    3.6754   -0.5256    1.4490 C   0  0  2  0  0  0  0  0  0  0  0  0
    4.6075    0.6725    1.2189 C   0  0  0  0  0  0  0  0  0  0  0  0
    3.5426   -0.8154   -1.0404 C   0  0  0  0  0  0  0  0  0  0  0  0
    4.4282    0.4139   -1.2085 C   0  0  0  0  0  0  0  0  0  0  0  0
    1.5458   -1.1186    0.3605 C   0  0  0  0  0  0  0  0  0  0  0  0
    4.4470   -1.7893    1.8327 C   0  0  0  0  0  0  0  0  0  0  0  0
    0.4904   -0.0873    0.2010 C   0  0  0  0  0  0  0  0  0  0  0  0
   -0.8439   -0.4952    0.3245 C   0  0  0  0  0  0  0  0  0  0  0  0
    6.7099    0.6063   -0.0714 C   0  0  0  0  0  0  0  0  0  0  0  0
    0.8090    1.2613   -0.0211 C   0  0  0  0  0  0  0  0  0  0  0  0
   -0.0598   -2.8042    0.7111 C   0  0  0  0  0  0  0  0  0  0  0  0
   -2.4658   -2.3523    0.5487 C   0  0  0  0  0  0  0  0  0  0  0  0
   -1.8422    0.4961    0.2920 C   0  0  0  0  0  0  0  0  0  0  0  0
   -3.0783   -2.7853   -0.6274 C   0  0  0  0  0  0  0  0  0  0  0  0
   -1.5236    1.8382    0.0740 C   0  0  0  0  0  0  0  0  0  0  0  0
   -0.1997    2.2186   -0.0939 C   0  0  0  0  0  0  0  0  0  0  0  0
   -2.3468   -2.7725   -1.9303 C   0  0  0  0  0  0  0  0  0  0  0  0
    7.3843    0.5065   -1.3806 C   0  0  0  0  0  0  0  0  0  0  0  0
   -3.1714   -2.3749    1.7517 C   0  0  0  0  0  0  0  0  0  0  0  0
   -2.6085    2.8009    0.0298 C   0  0  0  0  0  0  0  0  0  0  0  0
   -4.3965   -3.2408   -0.6004 C   0  0  0  0  0  0  0  0  0  0  0  0
   -2.1854   -4.1827   -2.5259 C   0  0  0  0  0  0  0  0  0  0  0  0
   -3.0046   -1.8387   -2.9623 C   0  0  0  0  0  0  0  0  0  0  0  0
   -4.4897   -2.8303    1.7788 C   0  0  0  0  0  0  0  0  0  0  0  0
   -5.1022   -3.2630    0.6027 C   0  0  0  0  0  0  0  0  0  0  0  0
   -3.2413    3.1044   -1.1757 C   0  0  0  0  0  0  0  0  0  0  0  0
    8.5557    1.1230   -1.5507 C   0  0  0  0  0  0  0  0  0  0  0  0
   -3.0181    3.4238    1.2088 C   0  0  0  0  0  0  0  0  0  0  0  0
   -4.2840    4.0309   -1.2022 C   0  0  0  0  0  0  0  0  0  0  0  0
   -4.0607    4.3502    1.1823 C   0  0  0  0  0  0  0  0  0  0  0  0
   -4.6938    4.6535   -0.0232 C   0  0  0  0  0  0  0  0  0  0  0  0
    3.0186   -0.2724    2.2918 H   0  0  0  0  0  0  0  0  0  0  0  0
    5.3057    0.7811    2.0555 H   0  0  0  0  0  0  0  0  0  0  0  0
    4.0224    1.5991    1.1679 H   0  0  0  0  0  0  0  0  0  0  0  0
    2.8173   -0.8513   -1.8621 H   0  0  0  0  0  0  0  0  0  0  0  0
    4.1433   -1.7303   -1.1008 H   0  0  0  0  0  0  0  0  0  0  0  0
    4.9712    0.3504   -2.1517 H   0  0  0  0  0  0  0  0  0  0  0  0
    3.8234    1.3263   -1.2591 H   0  0  0  0  0  0  0  0  0  0  0  0
    5.1430   -2.1016    1.0474 H   0  0  0  0  0  0  0  0  0  0  0  0
    3.7634   -2.6244    2.0181 H   0  0  0  0  0  0  0  0  0  0  0  0
    5.0269   -1.6229    2.7467 H   0  0  0  0  0  0  0  0  0  0  0  0
    1.8421    1.5780   -0.1179 H   0  0  0  0  0  0  0  0  0  0  0  0
   -2.8887    0.2250    0.4176 H   0  0  0  0  0  0  0  0  0  0  0  0
   -1.3275   -2.3937   -1.8051 H   0  0  0  0  0  0  0  0  0  0  0  0
    6.9656   -0.0927   -2.1776 H   0  0  0  0  0  0  0  0  0  0  0  0
   -2.7047   -2.0408    2.6749 H   0  0  0  0  0  0  0  0  0  0  0  0
   -4.8961   -3.5831   -1.5023 H   0  0  0  0  0  0  0  0  0  0  0  0
   -1.5683   -4.1489   -3.4304 H   0  0  0  0  0  0  0  0  0  0  0  0
   -1.6959   -4.8533   -1.8108 H   0  0  0  0  0  0  0  0  0  0  0  0
   -3.1485   -4.6274   -2.7985 H   0  0  0  0  0  0  0  0  0  0  0  0
   -3.1050   -0.8239   -2.5614 H   0  0  0  0  0  0  0  0  0  0  0  0
   -2.3951   -1.7810   -3.8709 H   0  0  0  0  0  0  0  0  0  0  0  0
   -4.0019   -2.1848   -3.2540 H   0  0  0  0  0  0  0  0  0  0  0  0
   -5.0391   -2.8478    2.7155 H   0  0  0  0  0  0  0  0  0  0  0  0
   -6.1286   -3.6174    0.6240 H   0  0  0  0  0  0  0  0  0  0  0  0
    9.0775    1.0410   -2.4986 H   0  0  0  0  0  0  0  0  0  0  0  0
    9.0230    1.7233   -0.7777 H   0  0  0  0  0  0  0  0  0  0  0  0
   -4.7864    4.2776   -2.1337 H   0  0  0  0  0  0  0  0  0  0  0  0
   -4.3799    4.8346    2.1004 H   0  0  0  0  0  0  0  0  0  0  0  0
   -5.5056    5.3747   -0.0435 H   0  0  0  0  0  0  0  0  0  0  0  0
   -3.4165    2.8475   -3.0675 H   0  0  0  0  0  0  0  0  0  0  0  0
  1 25  1  0  0  0  0
  2 37  1  0  0  0  0
  3 18  2  0  0  0  0
  4 20  2  0  0  0  0
  5 35  1  0  0  0  0
  5 70  1  0  0  0  0
  6 10  1  0  0  0  0
  6 12  1  0  0  0  0
  6 14  1  0  0  0  0
  7 11  1  0  0  0  0
  7 13  1  0  0  0  0
  7 18  1  0  0  0  0
  8 17  1  0  0  0  0
  8 20  1  0  0  0  0
  8 21  1  0  0  0  0
  9 14  2  0  0  0  0
  9 20  1  0  0  0  0
 10 11  1  0  0  0  0
 10 15  1  0  0  0  0
 10 41  1  0  0  0  0
 11 42  1  0  0  0  0
 11 43  1  0  0  0  0
 12 13  1  0  0  0  0
 12 44  1  0  0  0  0
 12 45  1  0  0  0  0
 13 46  1  0  0  0  0
 13 47  1  0  0  0  0
 14 16  1  0  0  0  0
 15 48  1  0  0  0  0
 15 49  1  0  0  0  0
 15 50  1  0  0  0  0
 16 17  1  0  0  0  0
 16 19  2  0  0  0  0
 17 22  2  0  0  0  0
 18 27  1  0  0  0  0
 19 25  1  0  0  0  0
 19 51  1  0  0  0  0
 21 23  1  0  0  0  0
 21 28  2  0  0  0  0
 22 24  1  0  0  0  0
 22 52  1  0  0  0  0
 23 26  1  0  0  0  0
 23 30  2  0  0  0  0
 24 25  2  0  0  0  0
 24 29  1  0  0  0  0
 26 31  1  0  0  0  0
 26 32  1  0  0  0  0
 26 53  1  0  0  0  0
 27 36  2  0  0  0  0
 27 54  1  0  0  0  0
 28 33  1  0  0  0  0
 28 55  1  0  0  0  0
 29 35  2  0  0  0  0
 29 37  1  0  0  0  0
 30 34  1  0  0  0  0
 30 56  1  0  0  0  0
 31 57  1  0  0  0  0
 31 58  1  0  0  0  0
 31 59  1  0  0  0  0
 32 60  1  0  0  0  0
 32 61  1  0  0  0  0
 32 62  1  0  0  0  0
 33 34  2  0  0  0  0
 33 63  1  0  0  0  0
 34 64  1  0  0  0  0
 35 38  1  0  0  0  0
 36 65  1  0  0  0  0
 36 66  1  0  0  0  0
 37 39  2  0  0  0  0
 38 40  2  0  0  0  0
 38 67  1  0  0  0  0
 39 40  1  0  0  0  0
 39 68  1  0  0  0  0
 40 69  1  0  0  0  0
M  END
> <PUBCHEM_COMPOUND_CID>
137297911

> <PUBCHEM_CONFORMER_RMSD>
1

> <PUBCHEM_CONFORMER_DIVERSEORDER>
1
34
44
35
24
28
21
30
29
25
31
42
20
38
41
19
2
43
36
33
23
11
17
32
40
39
18
8
37
22
26
14
6
10
7
27
12
16
9
15
13
3
5
4

> <PUBCHEM_MMFF94_PARTIAL_CHARGES>
48
1 -0.18
10 0.37
11 0.3
12 0.37
13 0.3
14 0.41
16 0.09
17 0.12
18 0.62
19 -0.15
2 -0.19
20 0.84
21 0.12
22 -0.15
23 -0.14
25 0.18
26 0.14
27 -0.14
28 -0.15
3 -0.57
30 -0.15
33 -0.15
34 -0.15
35 0.08
36 -0.3
37 0.19
38 -0.15
39 -0.15
4 -0.57
40 -0.15
5 -0.53
51 0.15
52 0.15
54 0.15
55 0.15
56 0.15
6 -0.79
63 0.15
64 0.15
65 0.15
66 0.15
67 0.15
68 0.15
69 0.15
7 -0.66
70 0.45
8 -0.29
9 -0.66

> <PUBCHEM_EFFECTIVE_ROTOR_COUNT>
7.2

> <PUBCHEM_PHARMACOPHORE_FEATURES>
11
1 3 acceptor
1 36 hydrophobe
1 4 acceptor
1 5 donor
1 9 donor
3 26 31 32 hydrophobe
6 16 17 19 22 24 25 rings
6 21 23 28 30 33 34 rings
6 29 35 37 38 39 40 rings
6 6 7 10 11 12 13 rings
6 8 9 14 16 17 20 rings

> <PUBCHEM_HEAVY_ATOM_COUNT>
40

> <PUBCHEM_ATOM_DEF_STEREO_COUNT>
1

> <PUBCHEM_ATOM_UDEF_STEREO_COUNT>
0

> <PUBCHEM_BOND_DEF_STEREO_COUNT>
0

> <PUBCHEM_BOND_UDEF_STEREO_COUNT>
0

> <PUBCHEM_ISOTOPIC_ATOM_COUNT>
0

> <PUBCHEM_COMPONENT_COUNT>
1

> <PUBCHEM_CACTVS_TAUTO_COUNT>
-1

> <PUBCHEM_CONFORMER_ID>
082EFFF700000001

> <PUBCHEM_MMFF94_ENERGY>
157.6829

> <PUBCHEM_FEATURE_SELFOVERLAP>
55.846

> <PUBCHEM_SHAPE_FINGERPRINT>
10050765 1 18335987459348142170
10675989 125 17470174016719828540
11115154 58 17912609641169290687
11135609 187 18192139401016335637
11621639 254 18122638412241814692
11991303 11 18263073319644295397
12156800 1 17976861690123137287
12160290 23 18193812930558488217
12440605 4 18335704875721282835
12522641 68 18197776609420122933
12741549 16 17604992701618988879
12788726 201 18410005580648138659
13540713 5 18187635865886847298
13690498 29 18270685376119161028
13757389 114 18339367366070294300
13782708 43 17846500370678099446
13911987 19 18190453857547757837
14028597 1 17530679922932052107
140371 6 18189906490146525586
14068700 675 18264486376299933382
14118638 360 18187363260270751602
14294032 229 18410583863724328105
14556957 393 18189346830306618604
15276724 80 18411705404154923450
15439362 3 17905327329927469460
15444296 8 18129657646706274479
15484559 13 17762607405317860669
15775530 1 17986122807064449007
15968369 153 18198614622349151253
16087824 20 18410012127475561729
16114785 44 18409176489199503675
20766409 102 18119818160627396236
21772528 278 18267308625375870637
22311459 1 18264495151636147882
23929065 36 18270099332137204064
2747138 104 18191593158410959850
283562 15 18335420192477770003
3552219 110 17533236372743347510
4258327 124 18113621157603606636
4403749 210 18262245400722641457
504843 32 18262798450607107333
5080951 261 18130782365154036202
508180 173 17978477014739292039
5171179 24 18057026124340951737
57527306 92 18270971253897079251
5912855 24 18334853879685976250
5969126 39 18341050825640216734
6677587 24 15727216790321088399

> <PUBCHEM_SHAPE_MULTIPOLES>
780.25
14.89
6.81
2.09
37.74
3.51
-0.84
3.85
-2.39
-15.03
-0.37
-1.01
-1.01
-1.19

> <PUBCHEM_SHAPE_SELFOVERLAP>
1697.588

> <PUBCHEM_SHAPE_VOLUME>
427.1

> <PUBCHEM_COORDINATE_TYPE>
2
5
10

$$$$
146236007
  -OEChem-05102415023D

 69 73  0     1  0  0  0  0  0999 V2000
    0.2221   -3.9718   -0.0579 Cl  0  0  0  0  0  0  0  0  0  0  0  0
    7.2706   -0.5916   -1.3979 O   0  0  0  0  0  0  0  0  0  0  0  0
   -0.3553    3.9264    0.6973 O   0  0  0  0  0  0  0  0  0  0  0  0
   -2.7924   -2.5654   -2.2127 O   0  0  0  0  0  0  0  0  0  0  0  0
    2.8366    0.7385    0.1804 N   0  0  0  0  0  0  0  0  0  0  0  0
    5.3195   -0.5884   -0.1315 N   0  0  0  0  0  0  0  0  0  0  0  0
   -1.1434    1.7538    0.5633 N   0  0  0  0  0  0  0  0  0  0  0  0
    1.1858    2.3154    0.4007 N   0  0  0  0  0  0  0  0  0  0  0  0
   -1.8286   -0.5638    0.3595 N   0  0  0  0  0  0  0  0  0  0  0  0
    3.5229    0.8202   -1.1161 C   0  0  2  0  0  0  0  0  0  0  0  0
    4.4602   -0.3774   -1.2957 C   0  0  0  0  0  0  0  0  0  0  0  0
    3.6585    0.4758    1.3623 C   0  0  0  0  0  0  0  0  0  0  0  0
    4.5975   -0.7068    1.1395 C   0  0  0  0  0  0  0  0  0  0  0  0
    1.5258    1.0624    0.3002 C   0  0  0  0  0  0  0  0  0  0  0  0
    4.2609    2.1532   -1.2431 C   0  0  0  0  0  0  0  0  0  0  0  0
    0.4988   -0.0042    0.3066 C   0  0  0  0  0  0  0  0  0  0  0  0
    6.6959   -0.6967   -0.3130 C   0  0  0  0  0  0  0  0  0  0  0  0
   -0.8373    0.3640    0.4267 C   0  0  0  0  0  0  0  0  0  0  0  0
   -0.1210    2.7253    0.5456 C   0  0  0  0  0  0  0  0  0  0  0  0
    0.8211   -1.3576    0.1594 C   0  0  0  0  0  0  0  0  0  0  0  0
   -2.5198    2.1391    0.7067 C   0  0  0  0  0  0  0  0  0  0  0  0
   -3.3025    2.4266   -0.4115 C   0  0  0  0  0  0  0  0  0  0  0  0
   -2.7380    2.3432   -1.7925 C   0  0  0  0  0  0  0  0  0  0  0  0
    7.5287   -0.9598    0.8775 C   0  0  0  0  0  0  0  0  0  0  0  0
   -0.1889   -2.3085    0.1187 C   0  0  0  0  0  0  0  0  0  0  0  0
   -1.4894   -1.8632    0.2170 C   0  0  0  0  0  0  0  0  0  0  0  0
   -3.0718    2.2242    1.9849 C   0  0  0  0  0  0  0  0  0  0  0  0
   -4.6371    2.7993   -0.2516 C   0  0  0  0  0  0  0  0  0  0  0  0
   -3.4473    1.2816   -2.6526 C   0  0  0  0  0  0  0  0  0  0  0  0
   -2.7555    3.7022   -2.5156 C   0  0  0  0  0  0  0  0  0  0  0  0
   -2.6285   -2.7541    0.1782 C   0  0  0  0  0  0  0  0  0  0  0  0
   -4.4064    2.5968    2.1448 C   0  0  0  0  0  0  0  0  0  0  0  0
   -5.1891    2.8843    1.0267 C   0  0  0  0  0  0  0  0  0  0  0  0
    8.7790   -0.4938    0.9055 C   0  0  0  0  0  0  0  0  0  0  0  0
   -3.2429   -3.0773   -1.0317 C   0  0  0  0  0  0  0  0  0  0  0  0
   -3.1123   -3.2908    1.3712 C   0  0  0  0  0  0  0  0  0  0  0  0
   -4.3410   -3.9372   -1.0484 C   0  0  0  0  0  0  0  0  0  0  0  0
   -4.2106   -4.1506    1.3545 C   0  0  0  0  0  0  0  0  0  0  0  0
   -4.8249   -4.4738    0.1448 C   0  0  0  0  0  0  0  0  0  0  0  0
    2.7783    0.7785   -1.9221 H   0  0  0  0  0  0  0  0  0  0  0  0
    5.0530   -0.2634   -2.2094 H   0  0  0  0  0  0  0  0  0  0  0  0
    3.8707   -1.2953   -1.4138 H   0  0  0  0  0  0  0  0  0  0  0  0
    3.0272    0.2721    2.2357 H   0  0  0  0  0  0  0  0  0  0  0  0
    4.2408    1.3751    1.5952 H   0  0  0  0  0  0  0  0  0  0  0  0
    5.2714   -0.7789    1.9940 H   0  0  0  0  0  0  0  0  0  0  0  0
    4.0295   -1.6431    1.0933 H   0  0  0  0  0  0  0  0  0  0  0  0
    5.0434    2.2647   -0.4854 H   0  0  0  0  0  0  0  0  0  0  0  0
    3.5703    2.9955   -1.1304 H   0  0  0  0  0  0  0  0  0  0  0  0
    4.7343    2.2382   -2.2270 H   0  0  0  0  0  0  0  0  0  0  0  0
    1.8542   -1.6758    0.0631 H   0  0  0  0  0  0  0  0  0  0  0  0
   -1.6857    2.0424   -1.7686 H   0  0  0  0  0  0  0  0  0  0  0  0
    7.1527   -1.5594    1.6955 H   0  0  0  0  0  0  0  0  0  0  0  0
   -2.4717    2.0028    2.8638 H   0  0  0  0  0  0  0  0  0  0  0  0
   -5.2676    3.0279   -1.1062 H   0  0  0  0  0  0  0  0  0  0  0  0
   -4.4934    1.5414   -2.8468 H   0  0  0  0  0  0  0  0  0  0  0  0
   -2.9469    1.1755   -3.6213 H   0  0  0  0  0  0  0  0  0  0  0  0
   -3.4309    0.3049   -2.1575 H   0  0  0  0  0  0  0  0  0  0  0  0
   -3.7749    4.0597   -2.6963 H   0  0  0  0  0  0  0  0  0  0  0  0
   -2.2318    4.4630   -1.9261 H   0  0  0  0  0  0  0  0  0  0  0  0
   -2.2541    3.6266   -3.4867 H   0  0  0  0  0  0  0  0  0  0  0  0
   -4.8363    2.6630    3.1400 H   0  0  0  0  0  0  0  0  0  0  0  0
   -6.2283    3.1742    1.1515 H   0  0  0  0  0  0  0  0  0  0  0  0
    9.4131   -0.6978    1.7621 H   0  0  0  0  0  0  0  0  0  0  0  0
    9.2045    0.0996    0.1036 H   0  0  0  0  0  0  0  0  0  0  0  0
   -2.6460   -3.0490    2.3235 H   0  0  0  0  0  0  0  0  0  0  0  0
   -4.8303   -4.1978   -1.9831 H   0  0  0  0  0  0  0  0  0  0  0  0
   -4.5875   -4.5683    2.2835 H   0  0  0  0  0  0  0  0  0  0  0  0
   -5.6800   -5.1432    0.1319 H   0  0  0  0  0  0  0  0  0  0  0  0
   -3.3472   -2.9002   -2.9379 H   0  0  0  0  0  0  0  0  0  0  0  0
  1 25  1  0  0  0  0
  2 17  2  0  0  0  0
  3 19  2  0  0  0  0
  4 35  1  0  0  0  0
  4 69  1  0  0  0  0
  5 10  1  0  0  0  0
  5 12  1  0  0  0  0
  5 14  1  0  0  0  0
  6 11  1  0  0  0  0
  6 13  1  0  0  0  0
  6 17  1  0  0  0  0
  7 18  1  0  0  0  0
  7 19  1  0  0  0  0
  7 21  1  0  0  0  0
  8 14  2  0  0  0  0
  8 19  1  0  0  0  0
  9 18  2  0  0  0  0
  9 26  1  0  0  0  0
 10 11  1  0  0  0  0
 10 15  1  0  0  0  0
 10 40  1  0  0  0  0
 11 41  1  0  0  0  0
 11 42  1  0  0  0  0
 12 13  1  0  0  0  0
 12 43  1  0  0  0  0
 12 44  1  0  0  0  0
 13 45  1  0  0  0  0
 13 46  1  0  0  0  0
 14 16  1  0  0  0  0
 15 47  1  0  0  0  0
 15 48  1  0  0  0  0
 15 49  1  0  0  0  0
 16 18  1  0  0  0  0
 16 20  2  0  0  0  0
 17 24  1  0  0  0  0
 20 25  1  0  0  0  0
 20 50  1  0  0  0  0
 21 22  1  0  0  0  0
 21 27  2  0  0  0  0
 22 23  1  0  0  0  0
 22 28  2  0  0  0  0
 23 29  1  0  0  0  0
 23 30  1  0  0  0  0
 23 51  1  0  0  0  0
 24 34  2  0  0  0  0
 24 52  1  0  0  0  0
 25 26  2  0  0  0  0
 26 31  1  0  0  0  0
 27 32  1  0  0  0  0
 27 53  1  0  0  0  0
 28 33  1  0  0  0  0
 28 54  1  0  0  0  0
 29 55  1  0  0  0  0
 29 56  1  0  0  0  0
 29 57  1  0  0  0  0
 30 58  1  0  0  0  0
 30 59  1  0  0  0  0
 30 60  1  0  0  0  0
 31 35  1  0  0  0  0
 31 36  2  0  0  0  0
 32 33  2  0  0  0  0
 32 61  1  0  0  0  0
 33 62  1  0  0  0  0
 34 63  1  0  0  0  0
 34 64  1  0  0  0  0
 35 37  2  0  0  0  0
 36 38  1  0  0  0  0
 36 65  1  0  0  0  0
 37 39  1  0  0  0  0
 37 66  1  0  0  0  0
 38 39  2  0  0  0  0
 38 67  1  0  0  0  0
 39 68  1  0  0  0  0
M  END
> <PUBCHEM_COMPOUND_CID>
146236007

> <PUBCHEM_CONFORMER_RMSD>
1

> <PUBCHEM_CONFORMER_DIVERSEORDER>
1
33
29
27
37
25
41
13
31
11
34
16
38
14
9
15
35
8
30
36
4
28
18
24
39
12
23
19
22
40
17
7
20
10
21
32
6
26
2
3
5

> <PUBCHEM_MMFF94_PARTIAL_CHARGES>
48
1 -0.18
10 0.37
11 0.3
12 0.37
13 0.3
14 0.41
16 0.09
17 0.62
18 0.43
19 0.84
2 -0.57
20 -0.15
21 0.12
22 -0.14
23 0.14
24 -0.14
25 0.18
26 0.31
27 -0.15
28 -0.15
3 -0.57
32 -0.15
33 -0.15
34 -0.3
35 0.08
36 -0.15
37 -0.15
38 -0.15
39 -0.15
4 -0.53
5 -0.79
50 0.15
52 0.15
53 0.15
54 0.15
6 -0.66
61 0.15
62 0.15
63 0.15
64 0.15
65 0.15
66 0.15
67 0.15
68 0.15
69 0.45
7 -0.29
8 -0.66
9 -0.62

> <PUBCHEM_EFFECTIVE_ROTOR_COUNT>
7.2

> <PUBCHEM_PHARMACOPHORE_FEATURES>
11
1 2 acceptor
1 3 acceptor
1 34 hydrophobe
1 4 donor
1 8 donor
3 23 29 30 hydrophobe
6 21 22 27 28 32 33 rings
6 31 35 36 37 38 39 rings
6 5 6 10 11 12 13 rings
6 7 8 14 16 18 19 rings
6 9 16 18 20 25 26 rings

> <PUBCHEM_HEAVY_ATOM_COUNT>
39

> <PUBCHEM_ATOM_DEF_STEREO_COUNT>
1

> <PUBCHEM_ATOM_UDEF_STEREO_COUNT>
0

> <PUBCHEM_BOND_DEF_STEREO_COUNT>
0

> <PUBCHEM_BOND_UDEF_STEREO_COUNT>
0

> <PUBCHEM_ISOTOPIC_ATOM_COUNT>
0

> <PUBCHEM_COMPONENT_COUNT>
1

> <PUBCHEM_CACTVS_TAUTO_COUNT>
-1

> <PUBCHEM_CONFORMER_ID>
08B7626700000001

> <PUBCHEM_MMFF94_ENERGY>
152.3094

> <PUBCHEM_FEATURE_SELFOVERLAP>
55.85

> <PUBCHEM_SHAPE_FINGERPRINT>
10050765 1 18339927138180199440
10119406 146 18055640512753103974
10190108 129 18262534688165385267
10411042 1 18196090164799858923
11285246 1 18053065645050527439
11297750 10 18268421524137094233
11991303 11 18335140848099548485
12156800 1 17980522050231297509
12160290 23 18267845311957093819
12422481 6 17559138633833502103
12788726 201 18196096765974331306
131258 43 17756166818062600134
13140716 1 18341615931883985952
13540713 4 18198887279705542088
13540713 5 18263940984748434788
13583140 156 16878228549914222552
13690498 29 18336547226355965206
13692114 37 18131070416580200105
13692115 27 18265614458161302226
13782708 43 17775565369301025982
13911987 19 18191857925754554549
14118638 360 18191309476169400068
14279260 333 18341884165276140982
14347332 77 18338519754595577878
14866123 147 18411707599321107563
15021287 119 17240770571128939012
15131766 46 16229184783734487476
15219462 58 15767562385696691288
15276724 80 18195818593806385317
15297060 5 18201435827267423082
15439362 3 17907858405778940822
15484559 13 18054215532946050669
15927050 60 18268996380030159619
19301676 85 17478347339864185070
19301679 30 18269000962559979987
19311894 1 18411420592004480704
20511986 3 17895186676899568040
20766409 102 18194687193091610372
21639891 77 18273497896481880216
21703447 108 18193829565167558824
22223350 30 18341609330397913464
22311459 1 18339646616607022784
23536364 44 18339908407669124679
23559900 14 18343860010063904120
23576562 1 18114188561464559684
244849 19 16987980791592368602
283562 15 18338235002442886379
3383291 50 18060693992653124383
4015057 19 17560219393723826168
4073 2 18131069308526103634
5080951 261 18342162367729786782
513202 73 18339652247003251003
5171179 24 18057601173317251897
59755656 520 18200030625405309721
6669772 16 18125725586634834391
6691757 9 18201162048513391145
6698420 124 17914347778955924144
70251023 43 18050570939061122307

> <PUBCHEM_SHAPE_MULTIPOLES>
761.96
15.55
6.2
1.91
38.51
3.74
0.7
3.61
-1.03
-13.31
0.17
-1.79
-1.11
-0.66

> <PUBCHEM_SHAPE_SELFOVERLAP>
1653.639

> <PUBCHEM_SHAPE_VOLUME>
416.4

> <PUBCHEM_COORDINATE_TYPE>
2
5
10

$$$$
140956861
  -OEChem-05102415023D

 68 72  0     1  0  0  0  0  0999 V2000
    0.2725   -3.9581   -0.0755 Cl  0  0  0  0  0  0  0  0  0  0  0  0
   -2.7384   -2.5572   -2.1936 F   0  0  0  0  0  0  0  0  0  0  0  0
    7.3061   -0.3173   -1.3418 O   0  0  0  0  0  0  0  0  0  0  0  0
   -0.4021    3.9294    0.7103 O   0  0  0  0  0  0  0  0  0  0  0  0
    2.8282    0.7839    0.1756 N   0  0  0  0  0  0  0  0  0  0  0  0
    5.3304   -0.4807   -0.1297 N   0  0  0  0  0  0  0  0  0  0  0  0
   -1.1628    1.7474    0.5719 N   0  0  0  0  0  0  0  0  0  0  0  0
    1.1585    2.3391    0.4045 N   0  0  0  0  0  0  0  0  0  0  0  0
   -1.8191   -0.5779    0.3630 N   0  0  0  0  0  0  0  0  0  0  0  0
    3.5129    0.8737   -1.1253 C   0  0  2  0  0  0  0  0  0  0  0  0
    4.4789   -0.3059   -1.3064 C   0  0  0  0  0  0  0  0  0  0  0  0
    3.6604    0.5270    1.3560 C   0  0  0  0  0  0  0  0  0  0  0  0
    4.5736   -0.6690    1.1123 C   0  0  0  0  0  0  0  0  0  0  0  0
    1.5140    1.0907    0.2992 C   0  0  0  0  0  0  0  0  0  0  0  0
    4.2211    2.2229   -1.2575 C   0  0  0  0  0  0  0  0  0  0  0  0
    0.5008    0.0112    0.3046 C   0  0  0  0  0  0  0  0  0  0  0  0
    6.7133   -0.4803   -0.2740 C   0  0  0  0  0  0  0  0  0  0  0  0
   -0.8395    0.3622    0.4302 C   0  0  0  0  0  0  0  0  0  0  0  0
   -0.1530    2.7320    0.5542 C   0  0  0  0  0  0  0  0  0  0  0  0
   -2.5435    2.1148    0.7202 C   0  0  0  0  0  0  0  0  0  0  0  0
    0.8397   -1.3374    0.1515 C   0  0  0  0  0  0  0  0  0  0  0  0
   -3.3328    2.3958   -0.3948 C   0  0  0  0  0  0  0  0  0  0  0  0
   -2.7709    2.3246   -1.7777 C   0  0  0  0  0  0  0  0  0  0  0  0
    7.5309   -0.6839    0.9381 C   0  0  0  0  0  0  0  0  0  0  0  0
   -0.1584   -2.3008    0.1106 C   0  0  0  0  0  0  0  0  0  0  0  0
   -1.4641   -1.8723    0.2148 C   0  0  0  0  0  0  0  0  0  0  0  0
   -3.0929    2.1889    2.0001 C   0  0  0  0  0  0  0  0  0  0  0  0
   -4.6715    2.7510   -0.2302 C   0  0  0  0  0  0  0  0  0  0  0  0
   -2.8074    3.6858   -2.4957 C   0  0  0  0  0  0  0  0  0  0  0  0
   -3.4690    1.2574   -2.6398 C   0  0  0  0  0  0  0  0  0  0  0  0
   -2.5924   -2.7766    0.1698 C   0  0  0  0  0  0  0  0  0  0  0  0
   -4.4318    2.5440    2.1650 C   0  0  0  0  0  0  0  0  0  0  0  0
   -5.2211    2.8250    1.0498 C   0  0  0  0  0  0  0  0  0  0  0  0
    8.7211   -1.2762    0.8205 C   0  0  0  0  0  0  0  0  0  0  0  0
   -3.1942   -3.0878   -1.0493 C   0  0  0  0  0  0  0  0  0  0  0  0
   -3.0789   -3.3371    1.3509 C   0  0  0  0  0  0  0  0  0  0  0  0
   -4.2825   -3.9595   -1.0876 C   0  0  0  0  0  0  0  0  0  0  0  0
   -4.1672   -4.2087    1.3127 C   0  0  0  0  0  0  0  0  0  0  0  0
   -4.7690   -4.5199    0.0935 C   0  0  0  0  0  0  0  0  0  0  0  0
    2.7675    0.8131   -1.9294 H   0  0  0  0  0  0  0  0  0  0  0  0
    5.0786   -0.1744   -2.2132 H   0  0  0  0  0  0  0  0  0  0  0  0
    3.9138   -1.2382   -1.4285 H   0  0  0  0  0  0  0  0  0  0  0  0
    3.0328    0.3275    2.2329 H   0  0  0  0  0  0  0  0  0  0  0  0
    4.2535    1.4209    1.5809 H   0  0  0  0  0  0  0  0  0  0  0  0
    5.2192   -0.8222    1.9772 H   0  0  0  0  0  0  0  0  0  0  0  0
    3.9881   -1.5880    0.9945 H   0  0  0  0  0  0  0  0  0  0  0  0
    4.9985    2.3564   -0.4982 H   0  0  0  0  0  0  0  0  0  0  0  0
    3.5111    3.0497   -1.1509 H   0  0  0  0  0  0  0  0  0  0  0  0
    4.6949    2.3136   -2.2407 H   0  0  0  0  0  0  0  0  0  0  0  0
    1.8753   -1.6426    0.0464 H   0  0  0  0  0  0  0  0  0  0  0  0
   -1.7148    2.0370   -1.7578 H   0  0  0  0  0  0  0  0  0  0  0  0
    7.1985   -0.3199    1.9006 H   0  0  0  0  0  0  0  0  0  0  0  0
   -2.4876    1.9724    2.8767 H   0  0  0  0  0  0  0  0  0  0  0  0
   -5.3072    2.9745   -1.0824 H   0  0  0  0  0  0  0  0  0  0  0  0
   -3.8316    4.0309   -2.6726 H   0  0  0  0  0  0  0  0  0  0  0  0
   -2.3073    3.6202   -3.4682 H   0  0  0  0  0  0  0  0  0  0  0  0
   -2.2920    4.4510   -1.9045 H   0  0  0  0  0  0  0  0  0  0  0  0
   -4.5204    1.5016   -2.8257 H   0  0  0  0  0  0  0  0  0  0  0  0
   -3.4334    0.2773   -2.1518 H   0  0  0  0  0  0  0  0  0  0  0  0
   -2.9734    1.1655   -3.6125 H   0  0  0  0  0  0  0  0  0  0  0  0
   -4.8597    2.6016    3.1615 H   0  0  0  0  0  0  0  0  0  0  0  0
   -6.2635    3.1014    1.1783 H   0  0  0  0  0  0  0  0  0  0  0  0
    9.3462   -1.4129    1.6969 H   0  0  0  0  0  0  0  0  0  0  0  0
    9.1045   -1.6453   -0.1245 H   0  0  0  0  0  0  0  0  0  0  0  0
   -2.6215   -3.1043    2.3097 H   0  0  0  0  0  0  0  0  0  0  0  0
   -4.7508   -4.2016   -2.0370 H   0  0  0  0  0  0  0  0  0  0  0  0
   -4.5462   -4.6450    2.2322 H   0  0  0  0  0  0  0  0  0  0  0  0
   -5.6164   -5.1986    0.0637 H   0  0  0  0  0  0  0  0  0  0  0  0
  1 25  1  0  0  0  0
  2 35  1  0  0  0  0
  3 17  2  0  0  0  0
  4 19  2  0  0  0  0
  5 10  1  0  0  0  0
  5 12  1  0  0  0  0
  5 14  1  0  0  0  0
  6 11  1  0  0  0  0
  6 13  1  0  0  0  0
  6 17  1  0  0  0  0
  7 18  1  0  0  0  0
  7 19  1  0  0  0  0
  7 20  1  0  0  0  0
  8 14  2  0  0  0  0
  8 19  1  0  0  0  0
  9 18  2  0  0  0  0
  9 26  1  0  0  0  0
 10 11  1  0  0  0  0
 10 15  1  0  0  0  0
 10 40  1  0  0  0  0
 11 41  1  0  0  0  0
 11 42  1  0  0  0  0
 12 13  1  0  0  0  0
 12 43  1  0  0  0  0
 12 44  1  0  0  0  0
 13 45  1  0  0  0  0
 13 46  1  0  0  0  0
 14 16  1  0  0  0  0
 15 47  1  0  0  0  0
 15 48  1  0  0  0  0
 15 49  1  0  0  0  0
 16 18  1  0  0  0  0
 16 21  2  0  0  0  0
 17 24  1  0  0  0  0
 20 22  1  0  0  0  0
 20 27  2  0  0  0  0
 21 25  1  0  0  0  0
 21 50  1  0  0  0  0
 22 23  1  0  0  0  0
 22 28  2  0  0  0  0
 23 29  1  0  0  0  0
 23 30  1  0  0  0  0
 23 51  1  0  0  0  0
 24 34  2  0  0  0  0
 24 52  1  0  0  0  0
 25 26  2  0  0  0  0
 26 31  1  0  0  0  0
 27 32  1  0  0  0  0
 27 53  1  0  0  0  0
 28 33  1  0  0  0  0
 28 54  1  0  0  0  0
 29 55  1  0  0  0  0
 29 56  1  0  0  0  0
 29 57  1  0  0  0  0
 30 58  1  0  0  0  0
 30 59  1  0  0  0  0
 30 60  1  0  0  0  0
 31 35  1  0  0  0  0
 31 36  2  0  0  0  0
 32 33  2  0  0  0  0
 32 61  1  0  0  0  0
 33 62  1  0  0  0  0
 34 63  1  0  0  0  0
 34 64  1  0  0  0  0
 35 37  2  0  0  0  0
 36 38  1  0  0  0  0
 36 65  1  0  0  0  0
 37 39  1  0  0  0  0
 37 66  1  0  0  0  0
 38 39  2  0  0  0  0
 38 67  1  0  0  0  0
 39 68  1  0  0  0  0
M  END
> <PUBCHEM_COMPOUND_CID>
140956861

> <PUBCHEM_CONFORMER_RMSD>
1

> <PUBCHEM_CONFORMER_DIVERSEORDER>
1
35
19
17
34
6
31
32
37
27
8
21
36
25
28
20
29
30
16
14
24
23
12
5
26
18
3
22
7
2
9
33
11
15
13
10
4
38

> <PUBCHEM_MMFF94_PARTIAL_CHARGES>
47
1 -0.18
10 0.37
11 0.3
12 0.37
13 0.3
14 0.41
16 0.09
17 0.62
18 0.43
19 0.84
2 -0.19
20 0.12
21 -0.15
22 -0.14
23 0.14
24 -0.14
25 0.18
26 0.31
27 -0.15
28 -0.15
3 -0.57
32 -0.15
33 -0.15
34 -0.3
35 0.19
36 -0.15
37 -0.15
38 -0.15
39 -0.15
4 -0.57
5 -0.79
50 0.15
52 0.15
53 0.15
54 0.15
6 -0.66
61 0.15
62 0.15
63 0.15
64 0.15
65 0.15
66 0.15
67 0.15
68 0.15
7 -0.29
8 -0.66
9 -0.62

> <PUBCHEM_EFFECTIVE_ROTOR_COUNT>
7.2

> <PUBCHEM_PHARMACOPHORE_FEATURES>
10
1 3 acceptor
1 34 hydrophobe
1 4 acceptor
1 8 donor
3 23 29 30 hydrophobe
6 20 22 27 28 32 33 rings
6 31 35 36 37 38 39 rings
6 5 6 10 11 12 13 rings
6 7 8 14 16 18 19 rings
6 9 16 18 21 25 26 rings

> <PUBCHEM_HEAVY_ATOM_COUNT>
39

> <PUBCHEM_ATOM_DEF_STEREO_COUNT>
1

> <PUBCHEM_ATOM_UDEF_STEREO_COUNT>
0

> <PUBCHEM_BOND_DEF_STEREO_COUNT>
0

> <PUBCHEM_BOND_UDEF_STEREO_COUNT>
0

> <PUBCHEM_ISOTOPIC_ATOM_COUNT>
0

> <PUBCHEM_COMPONENT_COUNT>
1

> <PUBCHEM_CACTVS_TAUTO_COUNT>
-1

> <PUBCHEM_CONFORMER_ID>
0866D4BD00000001

> <PUBCHEM_MMFF94_ENERGY>
149.8539

> <PUBCHEM_FEATURE_SELFOVERLAP>
50.775

> <PUBCHEM_SHAPE_FINGERPRINT>
10050765 1 18339927138248751736
10119406 146 18055920892523703598
10190108 129 18262534688154835755
11991303 11 18334860476934837527
12156800 1 17908465564337116965
12160290 23 18268126791218261235
12788726 201 18195532720809530874
13140716 1 18341897411108230176
13540713 4 18198604705259395200
13540713 5 18263659509750605668
13583140 156 16877944880156437097
13692115 27 18265612259159158722
13782708 43 17775564274068554250
13911987 19 18192139405031520213
14118638 360 18191590955446359268
14347332 77 18338238283903291510
14866123 147 18411425029085564435
15021287 119 17240770571118357012
15276724 80 18123759904593981924
15439362 3 17979633433892071670
15775530 1 17772454936051169880
15927050 60 18268996380009086587
19301679 30 18268720587052744563
19311894 1 18411139121370262040
21641784 216 17971766707183787949
21703447 108 18192985148806314344
22223350 30 18341610438525927504
22311459 1 18339646616665032088
23536364 44 18339346565822592423
244849 19 17059756914953808458
5080951 261 18342161268212864774
513202 73 18337681922044924907
59755656 520 18271244898361879353
6669772 16 18125162636623436207
6691757 9 18201162048508083920
6698420 124 17914348878425295424

> <PUBCHEM_SHAPE_MULTIPOLES>
760.55
15.54
6.22
1.9
38.26
4.22
0.67
3.71
-0.98
-13.09
0.21
-1.83
-1.13
-0.91

> <PUBCHEM_SHAPE_SELFOVERLAP>
1651.193

> <PUBCHEM_SHAPE_VOLUME>
417.1

> <PUBCHEM_COORDINATE_TYPE>
2
5
10

$$$$
137297915
  -OEChem-05102415023D

 69 73  0     1  0  0  0  0  0999 V2000
    0.2553   -3.8774   -0.3102 Cl  0  0  0  0  0  0  0  0  0  0  0  0
   -2.5238   -3.0173    2.3049 F   0  0  0  0  0  0  0  0  0  0  0  0
    7.3785   -0.3357   -1.3328 O   0  0  0  0  0  0  0  0  0  0  0  0
   -0.2634    3.9797    0.8216 O   0  0  0  0  0  0  0  0  0  0  0  0
   -2.7163   -2.3258   -2.4230 O   0  0  0  0  0  0  0  0  0  0  0  0
    2.9065    0.7926    0.1823 N   0  0  0  0  0  0  0  0  0  0  0  0
    5.3852   -0.5106   -0.1515 N   0  0  0  0  0  0  0  0  0  0  0  0
   -1.0679    1.8229    0.5768 N   0  0  0  0  0  0  0  0  0  0  0  0
    1.2672    2.3715    0.4621 N   0  0  0  0  0  0  0  0  0  0  0  0
   -1.7702   -0.4761    0.2563 N   0  0  0  0  0  0  0  0  0  0  0  0
    3.6088    0.9257   -1.1056 C   0  0  2  0  0  0  0  0  0  0  0  0
    4.5520   -0.2651   -1.3286 C   0  0  0  0  0  0  0  0  0  0  0  0
    3.7188    0.4653    1.3592 C   0  0  0  0  0  0  0  0  0  0  0  0
    4.6096   -0.7379    1.0722 C   0  0  0  0  0  0  0  0  0  0  0  0
    1.5977    1.1217    0.3048 C   0  0  0  0  0  0  0  0  0  0  0  0
    4.3467    2.2639   -1.1690 C   0  0  0  0  0  0  0  0  0  0  0  0
    0.5621    0.0651    0.2504 C   0  0  0  0  0  0  0  0  0  0  0  0
    6.7695   -0.5334   -0.2802 C   0  0  0  0  0  0  0  0  0  0  0  0
   -0.7720    0.4388    0.3766 C   0  0  0  0  0  0  0  0  0  0  0  0
   -0.0376    2.7854    0.6146 C   0  0  0  0  0  0  0  0  0  0  0  0
    0.8745   -1.2823    0.0406 C   0  0  0  0  0  0  0  0  0  0  0  0
   -2.4423    2.2129    0.7260 C   0  0  0  0  0  0  0  0  0  0  0  0
   -3.2121    2.5598   -0.3843 C   0  0  0  0  0  0  0  0  0  0  0  0
   -2.6352    2.5380   -1.7625 C   0  0  0  0  0  0  0  0  0  0  0  0
    7.5678   -0.8085    0.9306 C   0  0  0  0  0  0  0  0  0  0  0  0
   -0.1431   -2.2213   -0.0547 C   0  0  0  0  0  0  0  0  0  0  0  0
   -1.4406   -1.7699    0.0540 C   0  0  0  0  0  0  0  0  0  0  0  0
   -3.0056    2.2415    2.0018 C   0  0  0  0  0  0  0  0  0  0  0  0
   -4.5453    2.9355   -0.2188 C   0  0  0  0  0  0  0  0  0  0  0  0
   -3.3446    1.5249   -2.6790 C   0  0  0  0  0  0  0  0  0  0  0  0
   -2.6349    3.9301   -2.4197 C   0  0  0  0  0  0  0  0  0  0  0  0
   -2.5870   -2.6468   -0.0442 C   0  0  0  0  0  0  0  0  0  0  0  0
   -4.3388    2.6173    2.1673 C   0  0  0  0  0  0  0  0  0  0  0  0
   -5.1084    2.9644    1.0570 C   0  0  0  0  0  0  0  0  0  0  0  0
    8.7467   -1.4204    0.7998 C   0  0  0  0  0  0  0  0  0  0  0  0
   -3.1872   -2.8975   -1.2781 C   0  0  0  0  0  0  0  0  0  0  0  0
   -3.0906   -3.2450    1.1109 C   0  0  0  0  0  0  0  0  0  0  0  0
   -4.2911   -3.7467   -1.3571 C   0  0  0  0  0  0  0  0  0  0  0  0
   -4.1946   -4.0943    1.0319 C   0  0  0  0  0  0  0  0  0  0  0  0
   -4.7945   -4.3453   -0.2021 C   0  0  0  0  0  0  0  0  0  0  0  0
    2.8721    0.9171   -1.9198 H   0  0  0  0  0  0  0  0  0  0  0  0
    3.9689   -1.1786   -1.4989 H   0  0  0  0  0  0  0  0  0  0  0  0
    5.1652   -0.1061   -2.2218 H   0  0  0  0  0  0  0  0  0  0  0  0
    3.0766    0.2404    2.2191 H   0  0  0  0  0  0  0  0  0  0  0  0
    4.3277    1.3354    1.6307 H   0  0  0  0  0  0  0  0  0  0  0  0
    5.2413   -0.9434    1.9366 H   0  0  0  0  0  0  0  0  0  0  0  0
    4.0065   -1.6379    0.9067 H   0  0  0  0  0  0  0  0  0  0  0  0
    5.1174    2.3467   -0.3958 H   0  0  0  0  0  0  0  0  0  0  0  0
    3.6529    3.1002   -1.0334 H   0  0  0  0  0  0  0  0  0  0  0  0
    4.8342    2.3883   -2.1417 H   0  0  0  0  0  0  0  0  0  0  0  0
    1.9047   -1.6047   -0.0665 H   0  0  0  0  0  0  0  0  0  0  0  0
   -1.5856    2.2275   -1.7435 H   0  0  0  0  0  0  0  0  0  0  0  0
    7.2315   -0.4808    1.9048 H   0  0  0  0  0  0  0  0  0  0  0  0
   -2.4156    1.9733    2.8745 H   0  0  0  0  0  0  0  0  0  0  0  0
   -5.1659    3.2098   -1.0673 H   0  0  0  0  0  0  0  0  0  0  0  0
   -2.8354    1.4605   -3.6468 H   0  0  0  0  0  0  0  0  0  0  0  0
   -3.3415    0.5257   -2.2309 H   0  0  0  0  0  0  0  0  0  0  0  0
   -4.3865    1.8029   -2.8707 H   0  0  0  0  0  0  0  0  0  0  0  0
   -2.1107    4.6573   -1.7896 H   0  0  0  0  0  0  0  0  0  0  0  0
   -2.1249    3.8969   -3.3887 H   0  0  0  0  0  0  0  0  0  0  0  0
   -3.6496    4.3045   -2.5922 H   0  0  0  0  0  0  0  0  0  0  0  0
   -4.7774    2.6396    3.1606 H   0  0  0  0  0  0  0  0  0  0  0  0
   -6.1464    3.2568    1.1861 H   0  0  0  0  0  0  0  0  0  0  0  0
    9.3581   -1.6095    1.6762 H   0  0  0  0  0  0  0  0  0  0  0  0
    9.1337   -1.7551   -0.1564 H   0  0  0  0  0  0  0  0  0  0  0  0
   -4.7691   -3.9515   -2.3113 H   0  0  0  0  0  0  0  0  0  0  0  0
   -4.5862   -4.5605    1.9311 H   0  0  0  0  0  0  0  0  0  0  0  0
   -5.6537   -5.0067   -0.2634 H   0  0  0  0  0  0  0  0  0  0  0  0
   -3.2636   -2.6155   -3.1729 H   0  0  0  0  0  0  0  0  0  0  0  0
  1 26  1  0  0  0  0
  2 37  1  0  0  0  0
  3 18  2  0  0  0  0
  4 20  2  0  0  0  0
  5 36  1  0  0  0  0
  5 69  1  0  0  0  0
  6 11  1  0  0  0  0
  6 13  1  0  0  0  0
  6 15  1  0  0  0  0
  7 12  1  0  0  0  0
  7 14  1  0  0  0  0
  7 18  1  0  0  0  0
  8 19  1  0  0  0  0
  8 20  1  0  0  0  0
  8 22  1  0  0  0  0
  9 15  2  0  0  0  0
  9 20  1  0  0  0  0
 10 19  2  0  0  0  0
 10 27  1  0  0  0  0
 11 12  1  0  0  0  0
 11 16  1  0  0  0  0
 11 41  1  0  0  0  0
 12 42  1  0  0  0  0
 12 43  1  0  0  0  0
 13 14  1  0  0  0  0
 13 44  1  0  0  0  0
 13 45  1  0  0  0  0
 14 46  1  0  0  0  0
 14 47  1  0  0  0  0
 15 17  1  0  0  0  0
 16 48  1  0  0  0  0
 16 49  1  0  0  0  0
 16 50  1  0  0  0  0
 17 19  1  0  0  0  0
 17 21  2  0  0  0  0
 18 25  1  0  0  0  0
 21 26  1  0  0  0  0
 21 51  1  0  0  0  0
 22 23  1  0  0  0  0
 22 28  2  0  0  0  0
 23 24  1  0  0  0  0
 23 29  2  0  0  0  0
 24 30  1  0  0  0  0
 24 31  1  0  0  0  0
 24 52  1  0  0  0  0
 25 35  2  0  0  0  0
 25 53  1  0  0  0  0
 26 27  2  0  0  0  0
 27 32  1  0  0  0  0
 28 33  1  0  0  0  0
 28 54  1  0  0  0  0
 29 34  1  0  0  0  0
 29 55  1  0  0  0  0
 30 56  1  0  0  0  0
 30 57  1  0  0  0  0
 30 58  1  0  0  0  0
 31 59  1  0  0  0  0
 31 60  1  0  0  0  0
 31 61  1  0  0  0  0
 32 36  2  0  0  0  0
 32 37  1  0  0  0  0
 33 34  2  0  0  0  0
 33 62  1  0  0  0  0
 34 63  1  0  0  0  0
 35 64  1  0  0  0  0
 35 65  1  0  0  0  0
 36 38  1  0  0  0  0
 37 39  2  0  0  0  0
 38 40  2  0  0  0  0
 38 66  1  0  0  0  0
 39 40  1  0  0  0  0
 39 67  1  0  0  0  0
 40 68  1  0  0  0  0
M  END
> <PUBCHEM_COMPOUND_CID>
137297915

> <PUBCHEM_CONFORMER_RMSD>
1

> <PUBCHEM_CONFORMER_DIVERSEORDER>
1
35
41
27
32
17
20
16
24
34
37
30
22
40
23
25
33
21
9
28
39
11
12
31
19
36
14
38
13
26
6
29
8
7
18
15
2
4
10
3
5

> <PUBCHEM_MMFF94_PARTIAL_CHARGES>
48
1 -0.18
10 -0.62
11 0.37
12 0.3
13 0.37
14 0.3
15 0.41
17 0.09
18 0.62
19 0.43
2 -0.19
20 0.84
21 -0.15
22 0.12
23 -0.14
24 0.14
25 -0.14
26 0.18
27 0.31
28 -0.15
29 -0.15
3 -0.57
33 -0.15
34 -0.15
35 -0.3
36 0.08
37 0.19
38 -0.15
39 -0.15
4 -0.57
40 -0.15
5 -0.53
51 0.15
53 0.15
54 0.15
55 0.15
6 -0.79
62 0.15
63 0.15
64 0.15
65 0.15
66 0.15
67 0.15
68 0.15
69 0.45
7 -0.66
8 -0.29
9 -0.66

> <PUBCHEM_EFFECTIVE_ROTOR_COUNT>
7.2

> <PUBCHEM_PHARMACOPHORE_FEATURES>
11
1 3 acceptor
1 35 hydrophobe
1 4 acceptor
1 5 donor
1 9 donor
3 24 30 31 hydrophobe
6 10 17 19 21 26 27 rings
6 22 23 28 29 33 34 rings
6 32 36 37 38 39 40 rings
6 6 7 11 12 13 14 rings
6 8 9 15 17 19 20 rings

> <PUBCHEM_HEAVY_ATOM_COUNT>
40

> <PUBCHEM_ATOM_DEF_STEREO_COUNT>
1

> <PUBCHEM_ATOM_UDEF_STEREO_COUNT>
0

> <PUBCHEM_BOND_DEF_STEREO_COUNT>
0

> <PUBCHEM_BOND_UDEF_STEREO_COUNT>
0

> <PUBCHEM_ISOTOPIC_ATOM_COUNT>
0

> <PUBCHEM_COMPONENT_COUNT>
1

> <PUBCHEM_CACTVS_TAUTO_COUNT>
-1

> <PUBCHEM_CONFORMER_ID>
082EFFFB00000001

> <PUBCHEM_MMFF94_ENERGY>
152.5629

> <PUBCHEM_FEATURE_SELFOVERLAP>
55.85

> <PUBCHEM_SHAPE_FINGERPRINT>
10050765 1 18340488984437795472
10119406 146 18055920888255071078
10190108 129 18263378009273052323
11991303 11 18335423418229642141
12156800 1 17908747035008427717
12160290 23 18267846411389678265
12788726 201 18196094566987940594
13140716 1 18342178881853277048
13540713 4 18199167646702029176
13540713 5 18264221351729032724
13583140 156 16950565419884519520
13692115 27 18338231695070005586
13782708 43 17703506671477634446
13911987 19 18192420871360312981
14118638 360 18264211490884736172
14347332 77 18339081605063699774
14866123 147 18411706499751425019
15021287 119 17313109635869722316
15131766 46 16084789220103806460
15276724 80 18196098969382309468
15439362 3 17907857306304099958
15775530 1 17772454931824806824
15927050 60 18269276751163325883
19301679 30 18268720578394218659
19311894 1 18411420587873147552
21641784 216 18044388346302211373
21703447 108 18193828465655957024
22223350 30 18341891909265758072
22311459 1 18268150868826697384
23536364 44 18339908411921835519
244849 19 16916203573082794554
5080951 261 18341880888442187094
513202 73 18338526342627309507
5171179 24 17986668379706206777
59755656 520 18200030625410629969
6669772 16 18125162632360058967
6691757 9 18201443519232077248
6698420 124 17842854230114458208

> <PUBCHEM_SHAPE_MULTIPOLES>
775.26
15.36
6.29
1.98
39.14
3.07
0.58
4.12
-0.77
-12.88
0.27
-2.02
-0.88
-0.96

> <PUBCHEM_SHAPE_SELFOVERLAP>
1685.736

> <PUBCHEM_SHAPE_VOLUME>
424.6

> <PUBCHEM_COORDINATE_TYPE>
2
5
10

$$$$
137278717
  -OEChem-05102415023D

 72 76  0     1  0  0  0  0  0999 V2000
    0.3549   -3.9318   -0.2339 Cl  0  0  0  0  0  0  0  0  0  0  0  0
   -2.5656   -2.4595   -2.4106 F   0  0  0  0  0  0  0  0  0  0  0  0
    7.4514   -0.3493   -1.2999 O   0  0  0  0  0  0  0  0  0  0  0  0
   -0.2631    3.9550    0.6032 O   0  0  0  0  0  0  0  0  0  0  0  0
   -2.5090   -3.0425    2.3356 O   0  0  0  0  0  0  0  0  0  0  0  0
    2.9490    0.7828    0.1191 N   0  0  0  0  0  0  0  0  0  0  0  0
    5.4456   -0.5035   -0.1370 N   0  0  0  0  0  0  0  0  0  0  0  0
   -1.0410    1.7818    0.4279 N   0  0  0  0  0  0  0  0  0  0  0  0
    1.2892    2.3522    0.3212 N   0  0  0  0  0  0  0  0  0  0  0  0
   -1.7143   -0.5352    0.1833 N   0  0  0  0  0  0  0  0  0  0  0  0
    3.6656    0.8768   -1.1642 C   0  0  2  0  0  0  0  0  0  0  0  0
    4.6244   -0.3106   -1.3322 C   0  0  0  0  0  0  0  0  0  0  0  0
    3.7500    0.5079    1.3169 C   0  0  0  0  0  0  0  0  0  0  0  0
    4.6574   -0.6949    1.0848 C   0  0  0  0  0  0  0  0  0  0  0  0
    1.6352    1.1013    0.2138 C   0  0  0  0  0  0  0  0  0  0  0  0
    4.3897    2.2200   -1.2677 C   0  0  0  0  0  0  0  0  0  0  0  0
    0.6119    0.0317    0.1857 C   0  0  0  0  0  0  0  0  0  0  0  0
    6.8316   -0.5154   -0.2480 C   0  0  0  0  0  0  0  0  0  0  0  0
   -0.7276    0.3947    0.2821 C   0  0  0  0  0  0  0  0  0  0  0  0
   -2.4213    2.1613    0.5462 C   0  0  0  0  0  0  0  0  0  0  0  0
   -0.0218    2.7566    0.4428 C   0  0  0  0  0  0  0  0  0  0  0  0
    0.9415   -1.3188    0.0291 C   0  0  0  0  0  0  0  0  0  0  0  0
   -3.1637    2.4555   -0.5976 C   0  0  0  0  0  0  0  0  0  0  0  0
   -2.5513    2.3856   -1.9591 C   0  0  0  0  0  0  0  0  0  0  0  0
   -3.0192    2.2359    1.8042 C   0  0  0  0  0  0  0  0  0  0  0  0
   -0.0645   -2.2721   -0.0440 C   0  0  0  0  0  0  0  0  0  0  0  0
    7.6177   -0.7371    0.9815 C   0  0  0  0  0  0  0  0  0  0  0  0
   -1.3681   -1.8317    0.0325 C   0  0  0  0  0  0  0  0  0  0  0  0
   -4.5041    2.8245   -0.4832 C   0  0  0  0  0  0  0  0  0  0  0  0
   -4.3597    2.6050    1.9187 C   0  0  0  0  0  0  0  0  0  0  0  0
   -2.5466    3.7509   -2.6699 C   0  0  0  0  0  0  0  0  0  0  0  0
   -3.2281    1.3306   -2.8524 C   0  0  0  0  0  0  0  0  0  0  0  0
   -5.1020    2.8995    0.7750 C   0  0  0  0  0  0  0  0  0  0  0  0
   -2.2498    1.9257    3.0474 C   0  0  0  0  0  0  0  0  0  0  0  0
   -2.5036   -2.7245   -0.0473 C   0  0  0  0  0  0  0  0  0  0  0  0
    8.8047   -1.3400    0.8874 C   0  0  0  0  0  0  0  0  0  0  0  0
   -3.0382   -3.3001    1.1055 C   0  0  0  0  0  0  0  0  0  0  0  0
   -3.0652   -3.0066   -1.2926 C   0  0  0  0  0  0  0  0  0  0  0  0
   -4.1344   -4.1578    1.0129 C   0  0  0  0  0  0  0  0  0  0  0  0
   -4.1614   -3.8643   -1.3851 C   0  0  0  0  0  0  0  0  0  0  0  0
   -4.6962   -4.4396   -0.2323 C   0  0  0  0  0  0  0  0  0  0  0  0
    2.9392    0.8302   -1.9864 H   0  0  0  0  0  0  0  0  0  0  0  0
    4.0535   -1.2363   -1.4758 H   0  0  0  0  0  0  0  0  0  0  0  0
    5.2470   -0.1774   -2.2231 H   0  0  0  0  0  0  0  0  0  0  0  0
    3.0997    0.3073    2.1767 H   0  0  0  0  0  0  0  0  0  0  0  0
    4.3460    1.3941    1.5636 H   0  0  0  0  0  0  0  0  0  0  0  0
    5.2805   -0.8616    1.9637 H   0  0  0  0  0  0  0  0  0  0  0  0
    4.0662   -1.6071    0.9452 H   0  0  0  0  0  0  0  0  0  0  0  0
    5.1498    2.3397   -0.4889 H   0  0  0  0  0  0  0  0  0  0  0  0
    3.6852    3.0529   -1.1712 H   0  0  0  0  0  0  0  0  0  0  0  0
    4.8878    2.3143   -2.2384 H   0  0  0  0  0  0  0  0  0  0  0  0
    1.9764   -1.6332   -0.0538 H   0  0  0  0  0  0  0  0  0  0  0  0
   -1.4998    2.0868   -1.9047 H   0  0  0  0  0  0  0  0  0  0  0  0
    7.2658   -0.3779    1.9389 H   0  0  0  0  0  0  0  0  0  0  0  0
   -5.1041    3.0585   -1.3581 H   0  0  0  0  0  0  0  0  0  0  0  0
   -3.5598    4.1082   -2.8828 H   0  0  0  0  0  0  0  0  0  0  0  0
   -2.0116    3.6851   -3.6237 H   0  0  0  0  0  0  0  0  0  0  0  0
   -2.0454    4.5073   -2.0557 H   0  0  0  0  0  0  0  0  0  0  0  0
   -4.2689    1.5873   -3.0766 H   0  0  0  0  0  0  0  0  0  0  0  0
   -3.2217    0.3477   -2.3688 H   0  0  0  0  0  0  0  0  0  0  0  0
   -2.6973    1.2379   -3.8063 H   0  0  0  0  0  0  0  0  0  0  0  0
   -4.8417    2.6677    2.8907 H   0  0  0  0  0  0  0  0  0  0  0  0
   -6.1457    3.1866    0.8641 H   0  0  0  0  0  0  0  0  0  0  0  0
   -2.8533    2.0845    3.9480 H   0  0  0  0  0  0  0  0  0  0  0  0
   -1.9309    0.8784    3.0517 H   0  0  0  0  0  0  0  0  0  0  0  0
   -1.3719    2.5740    3.1328 H   0  0  0  0  0  0  0  0  0  0  0  0
    9.4072   -1.4901    1.7774 H   0  0  0  0  0  0  0  0  0  0  0  0
    9.2072   -1.7049   -0.0513 H   0  0  0  0  0  0  0  0  0  0  0  0
   -4.5616   -4.6137    1.9021 H   0  0  0  0  0  0  0  0  0  0  0  0
   -4.5989   -4.0833   -2.3546 H   0  0  0  0  0  0  0  0  0  0  0  0
   -5.5498   -5.1072   -0.3046 H   0  0  0  0  0  0  0  0  0  0  0  0
   -3.0136   -3.5308    3.0086 H   0  0  0  0  0  0  0  0  0  0  0  0
  1 26  1  0  0  0  0
  2 38  1  0  0  0  0
  3 18  2  0  0  0  0
  4 21  2  0  0  0  0
  5 37  1  0  0  0  0
  5 72  1  0  0  0  0
  6 11  1  0  0  0  0
  6 13  1  0  0  0  0
  6 15  1  0  0  0  0
  7 12  1  0  0  0  0
  7 14  1  0  0  0  0
  7 18  1  0  0  0  0
  8 19  1  0  0  0  0
  8 20  1  0  0  0  0
  8 21  1  0  0  0  0
  9 15  2  0  0  0  0
  9 21  1  0  0  0  0
 10 19  2  0  0  0  0
 10 28  1  0  0  0  0
 11 12  1  0  0  0  0
 11 16  1  0  0  0  0
 11 42  1  0  0  0  0
 12 43  1  0  0  0  0
 12 44  1  0  0  0  0
 13 14  1  0  0  0  0
 13 45  1  0  0  0  0
 13 46  1  0  0  0  0
 14 47  1  0  0  0  0
 14 48  1  0  0  0  0
 15 17  1  0  0  0  0
 16 49  1  0  0  0  0
 16 50  1  0  0  0  0
 16 51  1  0  0  0  0
 17 19  1  0  0  0  0
 17 22  2  0  0  0  0
 18 27  1  0  0  0  0
 20 23  1  0  0  0  0
 20 25  2  0  0  0  0
 22 26  1  0  0  0  0
 22 52  1  0  0  0  0
 23 24  1  0  0  0  0
 23 29  2  0  0  0  0
 24 31  1  0  0  0  0
 24 32  1  0  0  0  0
 24 53  1  0  0  0  0
 25 30  1  0  0  0  0
 25 34  1  0  0  0  0
 26 28  2  0  0  0  0
 27 36  2  0  0  0  0
 27 54  1  0  0  0  0
 28 35  1  0  0  0  0
 29 33  1  0  0  0  0
 29 55  1  0  0  0  0
 30 33  2  0  0  0  0
 30 62  1  0  0  0  0
 31 56  1  0  0  0  0
 31 57  1  0  0  0  0
 31 58  1  0  0  0  0
 32 59  1  0  0  0  0
 32 60  1  0  0  0  0
 32 61  1  0  0  0  0
 33 63  1  0  0  0  0
 34 64  1  0  0  0  0
 34 65  1  0  0  0  0
 34 66  1  0  0  0  0
 35 37  2  0  0  0  0
 35 38  1  0  0  0  0
 36 67  1  0  0  0  0
 36 68  1  0  0  0  0
 37 39  1  0  0  0  0
 38 40  2  0  0  0  0
 39 41  2  0  0  0  0
 39 69  1  0  0  0  0
 40 41  1  0  0  0  0
 40 70  1  0  0  0  0
 41 71  1  0  0  0  0
M  END
> <PUBCHEM_COMPOUND_CID>
137278717

> <PUBCHEM_CONFORMER_RMSD>
1

> <PUBCHEM_CONFORMER_DIVERSEORDER>
1
28
18
21
30
10
25
31
27
23
29
32
4
17
26
19
13
9
16
6
20
24
3
8
14
15
12
22
5
2
7
11

> <PUBCHEM_MMFF94_PARTIAL_CHARGES>
48
1 -0.18
10 -0.62
11 0.37
12 0.3
13 0.37
14 0.3
15 0.41
17 0.09
18 0.62
19 0.43
2 -0.19
20 0.12
21 0.84
22 -0.15
23 -0.14
24 0.14
25 -0.14
26 0.18
27 -0.14
28 0.31
29 -0.15
3 -0.57
30 -0.15
33 -0.15
34 0.14
36 -0.3
37 0.08
38 0.19
39 -0.15
4 -0.57
40 -0.15
41 -0.15
5 -0.53
52 0.15
54 0.15
55 0.15
6 -0.79
62 0.15
63 0.15
67 0.15
68 0.15
69 0.15
7 -0.66
70 0.15
71 0.15
72 0.45
8 -0.29
9 -0.66

> <PUBCHEM_EFFECTIVE_ROTOR_COUNT>
7.2

> <PUBCHEM_PHARMACOPHORE_FEATURES>
11
1 3 acceptor
1 36 hydrophobe
1 4 acceptor
1 5 donor
1 9 donor
3 24 31 32 hydrophobe
6 10 17 19 22 26 28 rings
6 20 23 25 29 30 33 rings
6 35 37 38 39 40 41 rings
6 6 7 11 12 13 14 rings
6 8 9 15 17 19 21 rings

> <PUBCHEM_HEAVY_ATOM_COUNT>
41

> <PUBCHEM_ATOM_DEF_STEREO_COUNT>
1

> <PUBCHEM_ATOM_UDEF_STEREO_COUNT>
0

> <PUBCHEM_BOND_DEF_STEREO_COUNT>
0

> <PUBCHEM_BOND_UDEF_STEREO_COUNT>
0

> <PUBCHEM_ISOTOPIC_ATOM_COUNT>
0

> <PUBCHEM_COMPONENT_COUNT>
1

> <PUBCHEM_CACTVS_TAUTO_COUNT>
-1

> <PUBCHEM_CONFORMER_ID>
082EB4FD00000001

> <PUBCHEM_MMFF94_ENERGY>
156.0057

> <PUBCHEM_FEATURE_SELFOVERLAP>
55.85

> <PUBCHEM_SHAPE_FINGERPRINT>
10050765 1 18339924934988564056
10119406 146 18055356843121951542
11421498 54 13484975276287714261
11991303 11 18335423426856493527
12156800 1 17908467763349842445
12160290 23 18339623634183546577
12788726 201 18196658616521632898
13140716 1 18341617031522194752
13540713 4 18198603601547758600
13540713 5 18263940980606389972
13583140 156 17095529439801279136
13692115 27 18338795748909182178
13782708 43 17775565369343230582
13911987 19 18192138301114155437
14068700 675 18199184169055873671
14118638 360 18263931119725137716
14866123 147 18411423925220927499
15021287 119 17312827061428804716
15276724 80 18123759904688973028
15439362 3 17979633429676180270
15775530 1 17772454936014292032
15927050 60 18268995280444691699
19311894 1 18411139117270479952
22223350 30 18341609339082916888
22311459 1 18339645517221982480
244849 19 16987979692159881546
5080951 261 18341880888531942302
513202 73 18337681921976333595
57527293 21 17171564031985166425
59755656 520 18200311005191753129
6669772 16 18124880062124541807
6691757 9 18201724998567006728

> <PUBCHEM_SHAPE_MULTIPOLES>
795.84
15.09
6.23
2.2
40.37
4.09
0.28
3.76
-0.71
-12.52
0.45
-2.34
-1.22
-0.96

> <PUBCHEM_SHAPE_SELFOVERLAP>
1729.346

> <PUBCHEM_SHAPE_VOLUME>
436.8

> <PUBCHEM_COORDINATE_TYPE>
2
5
10

$$$$
146235420
  -OEChem-05102415023D

 72 76  0     1  0  0  0  0  0999 V2000
    0.1951   -3.5839   -0.0276 F   0  0  0  0  0  0  0  0  0  0  0  0
   -1.7889   -3.5266   -2.0726 F   0  0  0  0  0  0  0  0  0  0  0  0
    7.4217   -0.6584   -1.2660 O   0  0  0  0  0  0  0  0  0  0  0  0
   -0.2370    3.9720    0.4251 O   0  0  0  0  0  0  0  0  0  0  0  0
   -3.3101   -1.9880    2.1920 O   0  0  0  0  0  0  0  0  0  0  0  0
    2.9480    0.7500    0.1205 N   0  0  0  0  0  0  0  0  0  0  0  0
    5.4304   -0.6012   -0.0651 N   0  0  0  0  0  0  0  0  0  0  0  0
   -1.0353    1.8008    0.3382 N   0  0  0  0  0  0  0  0  0  0  0  0
    1.3018    2.3430    0.2334 N   0  0  0  0  0  0  0  0  0  0  0  0
   -1.7295   -0.5184    0.1899 N   0  0  0  0  0  0  0  0  0  0  0  0
    3.6767    0.7838   -1.1548 C   0  0  2  0  0  0  0  0  0  0  0  0
    4.6110   -0.4245   -1.2633 C   0  0  0  0  0  0  0  0  0  0  0  0
    3.7290    0.5226    1.3368 C   0  0  0  0  0  0  0  0  0  0  0  0
    4.6666   -0.6724    1.1848 C   0  0  0  0  0  0  0  0  0  0  0  0
    1.6362    1.0854    0.1863 C   0  0  0  0  0  0  0  0  0  0  0  0
    4.4276    2.1075   -1.3022 C   0  0  0  0  0  0  0  0  0  0  0  0
    0.6022    0.0256    0.1947 C   0  0  0  0  0  0  0  0  0  0  0  0
    6.8112   -0.7235   -0.1976 C   0  0  0  0  0  0  0  0  0  0  0  0
   -0.7345    0.4054    0.2585 C   0  0  0  0  0  0  0  0  0  0  0  0
   -2.4130    2.1987    0.4234 C   0  0  0  0  0  0  0  0  0  0  0  0
   -0.0062    2.7651    0.3216 C   0  0  0  0  0  0  0  0  0  0  0  0
    0.9197   -1.3339    0.1036 C   0  0  0  0  0  0  0  0  0  0  0  0
   -3.1404    2.4468   -0.7407 C   0  0  0  0  0  0  0  0  0  0  0  0
   -2.5147    2.3075   -2.0908 C   0  0  0  0  0  0  0  0  0  0  0  0
   -3.0237    2.3356    1.6698 C   0  0  0  0  0  0  0  0  0  0  0  0
   -0.0950   -2.2797    0.0617 C   0  0  0  0  0  0  0  0  0  0  0  0
    7.6030   -0.9511    1.0277 C   0  0  0  0  0  0  0  0  0  0  0  0
   -1.3948   -1.8238    0.1023 C   0  0  0  0  0  0  0  0  0  0  0  0
   -4.4785    2.8317   -0.6582 C   0  0  0  0  0  0  0  0  0  0  0  0
   -4.3618    2.7205    1.7523 C   0  0  0  0  0  0  0  0  0  0  0  0
   -3.1916    1.2169   -2.9406 C   0  0  0  0  0  0  0  0  0  0  0  0
   -2.4909    3.6377   -2.8651 C   0  0  0  0  0  0  0  0  0  0  0  0
   -5.0892    2.9686    0.5884 C   0  0  0  0  0  0  0  0  0  0  0  0
   -2.2704    2.0776    2.9346 C   0  0  0  0  0  0  0  0  0  0  0  0
   -2.5127   -2.7352    0.0507 C   0  0  0  0  0  0  0  0  0  0  0  0
    8.8548   -0.4916    1.0811 C   0  0  0  0  0  0  0  0  0  0  0  0
   -3.4347   -2.7896    1.0958 C   0  0  0  0  0  0  0  0  0  0  0  0
   -2.6662   -3.5665   -1.0589 C   0  0  0  0  0  0  0  0  0  0  0  0
   -4.5102   -3.6754    1.0315 C   0  0  0  0  0  0  0  0  0  0  0  0
   -3.7417   -4.4522   -1.1232 C   0  0  0  0  0  0  0  0  0  0  0  0
   -4.6638   -4.5066   -0.0779 C   0  0  0  0  0  0  0  0  0  0  0  0
    2.9585    0.7193   -1.9830 H   0  0  0  0  0  0  0  0  0  0  0  0
    4.0193   -1.3424   -1.3698 H   0  0  0  0  0  0  0  0  0  0  0  0
    5.2341   -0.3449   -2.1604 H   0  0  0  0  0  0  0  0  0  0  0  0
    3.0682    0.3521    2.1954 H   0  0  0  0  0  0  0  0  0  0  0  0
    4.3097    1.4258    1.5584 H   0  0  0  0  0  0  0  0  0  0  0  0
    5.3117   -0.7196    2.0629 H   0  0  0  0  0  0  0  0  0  0  0  0
    4.0938   -1.6062    1.1512 H   0  0  0  0  0  0  0  0  0  0  0  0
    5.1857    2.2400   -0.5234 H   0  0  0  0  0  0  0  0  0  0  0  0
    3.7396    2.9572   -1.2405 H   0  0  0  0  0  0  0  0  0  0  0  0
    4.9335    2.1565   -2.2723 H   0  0  0  0  0  0  0  0  0  0  0  0
    1.9470   -1.6770    0.0501 H   0  0  0  0  0  0  0  0  0  0  0  0
   -1.4664    2.0033   -2.0112 H   0  0  0  0  0  0  0  0  0  0  0  0
    7.1964   -1.5205    1.8526 H   0  0  0  0  0  0  0  0  0  0  0  0
   -5.0671    3.0303   -1.5495 H   0  0  0  0  0  0  0  0  0  0  0  0
   -4.2284    1.4704   -3.1859 H   0  0  0  0  0  0  0  0  0  0  0  0
   -2.6531    1.0766   -3.8842 H   0  0  0  0  0  0  0  0  0  0  0  0
   -3.1967    0.2572   -2.4120 H   0  0  0  0  0  0  0  0  0  0  0  0
   -3.4987    3.9927   -3.1055 H   0  0  0  0  0  0  0  0  0  0  0  0
   -1.9896    4.4182   -2.2818 H   0  0  0  0  0  0  0  0  0  0  0  0
   -1.9466    3.5227   -3.8088 H   0  0  0  0  0  0  0  0  0  0  0  0
   -4.8538    2.8315    2.7150 H   0  0  0  0  0  0  0  0  0  0  0  0
   -6.1313    3.2681    0.6527 H   0  0  0  0  0  0  0  0  0  0  0  0
   -1.3895    2.7241    3.0008 H   0  0  0  0  0  0  0  0  0  0  0  0
   -1.9581    1.0298    2.9900 H   0  0  0  0  0  0  0  0  0  0  0  0
   -2.8831    2.2801    3.8201 H   0  0  0  0  0  0  0  0  0  0  0  0
    9.4593   -0.6704    1.9645 H   0  0  0  0  0  0  0  0  0  0  0  0
    9.3104    0.0718    0.2742 H   0  0  0  0  0  0  0  0  0  0  0  0
   -5.2368   -3.7289    1.8379 H   0  0  0  0  0  0  0  0  0  0  0  0
   -3.8612   -5.0993   -1.9871 H   0  0  0  0  0  0  0  0  0  0  0  0
   -5.5013   -5.1963   -0.1282 H   0  0  0  0  0  0  0  0  0  0  0  0
   -4.0441   -2.1678    2.8041 H   0  0  0  0  0  0  0  0  0  0  0  0
  1 26  1  0  0  0  0
  2 38  1  0  0  0  0
  3 18  2  0  0  0  0
  4 21  2  0  0  0  0
  5 37  1  0  0  0  0
  5 72  1  0  0  0  0
  6 11  1  0  0  0  0
  6 13  1  0  0  0  0
  6 15  1  0  0  0  0
  7 12  1  0  0  0  0
  7 14  1  0  0  0  0
  7 18  1  0  0  0  0
  8 19  1  0  0  0  0
  8 20  1  0  0  0  0
  8 21  1  0  0  0  0
  9 15  2  0  0  0  0
  9 21  1  0  0  0  0
 10 19  2  0  0  0  0
 10 28  1  0  0  0  0
 11 12  1  0  0  0  0
 11 16  1  0  0  0  0
 11 42  1  0  0  0  0
 12 43  1  0  0  0  0
 12 44  1  0  0  0  0
 13 14  1  0  0  0  0
 13 45  1  0  0  0  0
 13 46  1  0  0  0  0
 14 47  1  0  0  0  0
 14 48  1  0  0  0  0
 15 17  1  0  0  0  0
 16 49  1  0  0  0  0
 16 50  1  0  0  0  0
 16 51  1  0  0  0  0
 17 19  1  0  0  0  0
 17 22  2  0  0  0  0
 18 27  1  0  0  0  0
 20 23  1  0  0  0  0
 20 25  2  0  0  0  0
 22 26  1  0  0  0  0
 22 52  1  0  0  0  0
 23 24  1  0  0  0  0
 23 29  2  0  0  0  0
 24 31  1  0  0  0  0
 24 32  1  0  0  0  0
 24 53  1  0  0  0  0
 25 30  1  0  0  0  0
 25 34  1  0  0  0  0
 26 28  2  0  0  0  0
 27 36  2  0  0  0  0
 27 54  1  0  0  0  0
 28 35  1  0  0  0  0
 29 33  1  0  0  0  0
 29 55  1  0  0  0  0
 30 33  2  0  0  0  0
 30 62  1  0  0  0  0
 31 56  1  0  0  0  0
 31 57  1  0  0  0  0
 31 58  1  0  0  0  0
 32 59  1  0  0  0  0
 32 60  1  0  0  0  0
 32 61  1  0  0  0  0
 33 63  1  0  0  0  0
 34 64  1  0  0  0  0
 34 65  1  0  0  0  0
 34 66  1  0  0  0  0
 35 37  2  0  0  0  0
 35 38  1  0  0  0  0
 36 67  1  0  0  0  0
 36 68  1  0  0  0  0
 37 39  1  0  0  0  0
 38 40  2  0  0  0  0
 39 41  2  0  0  0  0
 39 69  1  0  0  0  0
 40 41  1  0  0  0  0
 40 70  1  0  0  0  0
 41 71  1  0  0  0  0
M  END
> <PUBCHEM_COMPOUND_CID>
146235420

> <PUBCHEM_CONFORMER_RMSD>
1

> <PUBCHEM_CONFORMER_DIVERSEORDER>
1
44
41
30
37
45
39
46
9
47
22
43
24
23
31
38
33
29
32
2
14
35
27
42
7
36
16
20
28
6
34
19
40
4
21
15
18
5
17
13
12
25
8
26
3
11
10

> <PUBCHEM_MMFF94_PARTIAL_CHARGES>
48
1 -0.19
10 -0.62
11 0.37
12 0.3
13 0.37
14 0.3
15 0.41
17 0.09
18 0.62
19 0.43
2 -0.19
20 0.12
21 0.84
22 -0.15
23 -0.14
24 0.14
25 -0.14
26 0.19
27 -0.14
28 0.31
29 -0.15
3 -0.57
30 -0.15
33 -0.15
34 0.14
36 -0.3
37 0.08
38 0.19
39 -0.15
4 -0.57
40 -0.15
41 -0.15
5 -0.53
52 0.15
54 0.15
55 0.15
6 -0.79
62 0.15
63 0.15
67 0.15
68 0.15
69 0.15
7 -0.66
70 0.15
71 0.15
72 0.45
8 -0.29
9 -0.66

> <PUBCHEM_EFFECTIVE_ROTOR_COUNT>
7.2

> <PUBCHEM_PHARMACOPHORE_FEATURES>
11
1 3 acceptor
1 36 hydrophobe
1 4 acceptor
1 5 donor
1 9 donor
3 24 31 32 hydrophobe
6 10 17 19 22 26 28 rings
6 20 23 25 29 30 33 rings
6 35 37 38 39 40 41 rings
6 6 7 11 12 13 14 rings
6 8 9 15 17 19 21 rings

> <PUBCHEM_HEAVY_ATOM_COUNT>
41

> <PUBCHEM_ATOM_DEF_STEREO_COUNT>
1

> <PUBCHEM_ATOM_UDEF_STEREO_COUNT>
0

> <PUBCHEM_BOND_DEF_STEREO_COUNT>
0

> <PUBCHEM_BOND_UDEF_STEREO_COUNT>
0

> <PUBCHEM_ISOTOPIC_ATOM_COUNT>
0

> <PUBCHEM_COMPONENT_COUNT>
1

> <PUBCHEM_CACTVS_TAUTO_COUNT>
-1

> <PUBCHEM_CONFORMER_ID>
08B7601C00000001

> <PUBCHEM_MMFF94_ENERGY>
154.3924

> <PUBCHEM_FEATURE_SELFOVERLAP>
55.85

> <PUBCHEM_SHAPE_FINGERPRINT>
10050765 1 18339926034458006776
10119406 146 18126004858968678798
11331351 85 18055637476327341335
11991303 11 18188767241264711703
12156800 1 18050044161765282773
12160290 23 18265594615818128305
12633046 712 18272932739406332928
12788726 201 18196097861307036346
13140716 1 18412547621735993128
13540713 4 18197197326144236456
13540713 5 18263094356710979340
13583140 156 17023193665095141360
13690498 29 18334857268504856726
13692114 37 18272931610156377953
13692115 27 18337952423469578978
13911987 19 18192138301098318277
14068700 675 18269556211631303435
14118638 360 18189056572596547100
14347332 77 18337674230259326214
14866123 147 18411707599136549627
14955137 171 17833561459181239451
15021287 119 17167867457039040772
15276724 80 18194974164787008028
15324884 4 17466828929460477889
15439362 3 17905602203708147358
15484559 13 17905860632038223397
19301679 30 18267870664669910258
19311894 1 18410856547103378648
20766409 102 18194403523470994636
21033648 29 12749868137721129234
22223350 30 18342167869498815688
22311459 1 18338519617325669808
23559900 14 18343294861129425160
23576562 1 18114190760672444556
244849 19 17131251554906871546
3383291 50 18272930514433503367
3504750 166 18341893000588513614
4073 2 18202281382517491986
4409770 3 18342455950578312587
4516262 110 17767407886139444593
469060 322 17895483643121766673
484985 159 18411418419025244475
504843 32 18262514767858463701
5080951 261 18339067238281692662
513202 73 18335427914596872403
5171179 24 18127689542040466881
6669772 16 18055918688482599599
6691757 9 18200878378961320976
70251023 43 18049724319260342139

> <PUBCHEM_SHAPE_MULTIPOLES>
786.7
15.26
6.13
2.16
40.98
4.21
0.49
4.06
-1.8
-13.08
1.12
-2.06
-1.4
-0.5

> <PUBCHEM_SHAPE_SELFOVERLAP>
1722.588

> <PUBCHEM_SHAPE_VOLUME>
427

> <PUBCHEM_COORDINATE_TYPE>
2
5
10

$$$$
135148885
  -OEChem-05102415023D

 69 73  0     1  0  0  0  0  0999 V2000
    0.2843    3.9510   -0.1406 Cl  0  0  0  0  0  0  0  0  0  0  0  0
   -2.8504    2.6579   -2.4590 Cl  0  0  0  0  0  0  0  0  0  0  0  0
    7.3847    0.5866    0.9335 O   0  0  0  0  0  0  0  0  0  0  0  0
   -0.4163   -3.9514    0.7999 O   0  0  0  0  0  0  0  0  0  0  0  0
    2.7743   -0.7729    0.2531 N   0  0  0  0  0  0  0  0  0  0  0  0
    5.2707    0.5086   -0.0279 N   0  0  0  0  0  0  0  0  0  0  0  0
   -1.2141   -1.7944    0.5448 N   0  0  0  0  0  0  0  0  0  0  0  0
    1.1263   -2.3306    0.5681 N   0  0  0  0  0  0  0  0  0  0  0  0
    3.6171   -0.5946    1.4477 C   0  0  2  0  0  0  0  0  0  0  0  0
    4.5758    0.5894    1.2570 C   0  0  0  0  0  0  0  0  0  0  0  0
    3.4481   -0.7740   -1.0500 C   0  0  0  0  0  0  0  0  0  0  0  0
    4.3618    0.4396   -1.1768 C   0  0  0  0  0  0  0  0  0  0  0  0
    1.4610   -1.0888    0.3621 C   0  0  0  0  0  0  0  0  0  0  0  0
    4.3618   -1.8920    1.7673 C   0  0  0  0  0  0  0  0  0  0  0  0
    0.4295   -0.0263    0.2602 C   0  0  0  0  0  0  0  0  0  0  0  0
   -0.9129   -0.4069    0.3831 C   0  0  0  0  0  0  0  0  0  0  0  0
    6.6606    0.5278   -0.0617 C   0  0  0  0  0  0  0  0  0  0  0  0
    0.7787    1.3224    0.0917 C   0  0  0  0  0  0  0  0  0  0  0  0
   -2.5774   -2.2321    0.5486 C   0  0  0  0  0  0  0  0  0  0  0  0
   -0.1816   -2.7486    0.6609 C   0  0  0  0  0  0  0  0  0  0  0  0
   -1.8868    0.6088    0.4057 C   0  0  0  0  0  0  0  0  0  0  0  0
   -3.2143   -2.5987   -0.6368 C   0  0  0  0  0  0  0  0  0  0  0  0
   -1.5376    1.9510    0.2411 C   0  0  0  0  0  0  0  0  0  0  0  0
   -2.4981   -2.5473   -1.9474 C   0  0  0  0  0  0  0  0  0  0  0  0
   -0.2069    2.3061    0.0727 C   0  0  0  0  0  0  0  0  0  0  0  0
    7.3170    0.4681   -1.3825 C   0  0  0  0  0  0  0  0  0  0  0  0
   -3.2692   -2.2893    1.7584 C   0  0  0  0  0  0  0  0  0  0  0  0
   -4.5431   -3.0225   -0.6125 C   0  0  0  0  0  0  0  0  0  0  0  0
   -2.5989    2.9406    0.2518 C   0  0  0  0  0  0  0  0  0  0  0  0
   -2.3792   -3.9338   -2.6052 C   0  0  0  0  0  0  0  0  0  0  0  0
   -3.1445   -1.5536   -2.9295 C   0  0  0  0  0  0  0  0  0  0  0  0
   -4.5980   -2.7131    1.7829 C   0  0  0  0  0  0  0  0  0  0  0  0
   -5.2349   -3.0797    0.5974 C   0  0  0  0  0  0  0  0  0  0  0  0
    8.5012    1.0628   -1.5410 C   0  0  0  0  0  0  0  0  0  0  0  0
   -3.2546    3.3280   -0.9167 C   0  0  0  0  0  0  0  0  0  0  0  0
   -2.9589    3.5076    1.4743 C   0  0  0  0  0  0  0  0  0  0  0  0
   -4.2704    4.2825   -0.8628 C   0  0  0  0  0  0  0  0  0  0  0  0
   -3.9746    4.4622    1.5282 C   0  0  0  0  0  0  0  0  0  0  0  0
   -4.6304    4.8496    0.3597 C   0  0  0  0  0  0  0  0  0  0  0  0
    2.9767   -0.3621    2.3088 H   0  0  0  0  0  0  0  0  0  0  0  0
    4.0132    1.5311    1.2530 H   0  0  0  0  0  0  0  0  0  0  0  0
    5.2862    0.6450    2.0885 H   0  0  0  0  0  0  0  0  0  0  0  0
    2.7125   -0.7571   -1.8631 H   0  0  0  0  0  0  0  0  0  0  0  0
    4.0253   -1.6997   -1.1569 H   0  0  0  0  0  0  0  0  0  0  0  0
    4.8919    0.4036   -2.1287 H   0  0  0  0  0  0  0  0  0  0  0  0
    3.7791    1.3677   -1.1807 H   0  0  0  0  0  0  0  0  0  0  0  0
    5.0406   -2.1870    0.9605 H   0  0  0  0  0  0  0  0  0  0  0  0
    3.6599   -2.7175    1.9256 H   0  0  0  0  0  0  0  0  0  0  0  0
    4.9563   -1.7790    2.6800 H   0  0  0  0  0  0  0  0  0  0  0  0
    1.8181    1.6180   -0.0047 H   0  0  0  0  0  0  0  0  0  0  0  0
   -2.9380    0.3578    0.5328 H   0  0  0  0  0  0  0  0  0  0  0  0
   -1.4683   -2.1992   -1.8190 H   0  0  0  0  0  0  0  0  0  0  0  0
    6.8744   -0.0861   -2.1989 H   0  0  0  0  0  0  0  0  0  0  0  0
   -2.7835   -2.0068    2.6890 H   0  0  0  0  0  0  0  0  0  0  0  0
   -5.0616   -3.3130   -1.5219 H   0  0  0  0  0  0  0  0  0  0  0  0
   -1.8977   -4.6464   -1.9263 H   0  0  0  0  0  0  0  0  0  0  0  0
   -1.7726   -3.8757   -3.5156 H   0  0  0  0  0  0  0  0  0  0  0  0
   -3.3562   -4.3427   -2.8838 H   0  0  0  0  0  0  0  0  0  0  0  0
   -3.2244   -0.5587   -2.4792 H   0  0  0  0  0  0  0  0  0  0  0  0
   -2.5397   -1.4637   -3.8385 H   0  0  0  0  0  0  0  0  0  0  0  0
   -4.1499   -1.8673   -3.2301 H   0  0  0  0  0  0  0  0  0  0  0  0
   -5.1366   -2.7575    2.7250 H   0  0  0  0  0  0  0  0  0  0  0  0
   -6.2695   -3.4095    0.6166 H   0  0  0  0  0  0  0  0  0  0  0  0
    9.0097    1.0090   -2.4981 H   0  0  0  0  0  0  0  0  0  0  0  0
    8.9922    1.6179   -0.7491 H   0  0  0  0  0  0  0  0  0  0  0  0
   -2.4595    3.2187    2.3963 H   0  0  0  0  0  0  0  0  0  0  0  0
   -4.7918    4.5958   -1.7638 H   0  0  0  0  0  0  0  0  0  0  0  0
   -4.2549    4.9039    2.4799 H   0  0  0  0  0  0  0  0  0  0  0  0
   -5.4212    5.5928    0.4019 H   0  0  0  0  0  0  0  0  0  0  0  0
  1 25  1  0  0  0  0
  2 35  1  0  0  0  0
  3 17  2  0  0  0  0
  4 20  2  0  0  0  0
  5  9  1  0  0  0  0
  5 11  1  0  0  0  0
  5 13  1  0  0  0  0
  6 10  1  0  0  0  0
  6 12  1  0  0  0  0
  6 17  1  0  0  0  0
  7 16  1  0  0  0  0
  7 19  1  0  0  0  0
  7 20  1  0  0  0  0
  8 13  2  0  0  0  0
  8 20  1  0  0  0  0
  9 10  1  0  0  0  0
  9 14  1  0  0  0  0
  9 40  1  0  0  0  0
 10 41  1  0  0  0  0
 10 42  1  0  0  0  0
 11 12  1  0  0  0  0
 11 43  1  0  0  0  0
 11 44  1  0  0  0  0
 12 45  1  0  0  0  0
 12 46  1  0  0  0  0
 13 15  1  0  0  0  0
 14 47  1  0  0  0  0
 14 48  1  0  0  0  0
 14 49  1  0  0  0  0
 15 16  1  0  0  0  0
 15 18  2  0  0  0  0
 16 21  2  0  0  0  0
 17 26  1  0  0  0  0
 18 25  1  0  0  0  0
 18 50  1  0  0  0  0
 19 22  1  0  0  0  0
 19 27  2  0  0  0  0
 21 23  1  0  0  0  0
 21 51  1  0  0  0  0
 22 24  1  0  0  0  0
 22 28  2  0  0  0  0
 23 25  2  0  0  0  0
 23 29  1  0  0  0  0
 24 30  1  0  0  0  0
 24 31  1  0  0  0  0
 24 52  1  0  0  0  0
 26 34  2  0  0  0  0
 26 53  1  0  0  0  0
 27 32  1  0  0  0  0
 27 54  1  0  0  0  0
 28 33  1  0  0  0  0
 28 55  1  0  0  0  0
 29 35  1  0  0  0  0
 29 36  2  0  0  0  0
 30 56  1  0  0  0  0
 30 57  1  0  0  0  0
 30 58  1  0  0  0  0
 31 59  1  0  0  0  0
 31 60  1  0  0  0  0
 31 61  1  0  0  0  0
 32 33  2  0  0  0  0
 32 62  1  0  0  0  0
 33 63  1  0  0  0  0
 34 64  1  0  0  0  0
 34 65  1  0  0  0  0
 35 37  2  0  0  0  0
 36 38  1  0  0  0  0
 36 66  1  0  0  0  0
 37 39  1  0  0  0  0
 37 67  1  0  0  0  0
 38 39  2  0  0  0  0
 38 68  1  0  0  0  0
 39 69  1  0  0  0  0
M  END
> <PUBCHEM_COMPOUND_CID>
135148885

> <PUBCHEM_CONFORMER_RMSD>
1

> <PUBCHEM_CONFORMER_DIVERSEORDER>
1
27
32
18
22
14
26
25
33
15
30
35
17
29
23
16
24
28
34
21
5
31
11
13
7
20
8
10
12
6
9
19
2
4
3

> <PUBCHEM_MMFF94_PARTIAL_CHARGES>
47
1 -0.18
10 0.3
11 0.37
12 0.3
13 0.41
15 0.09
16 0.12
17 0.62
18 -0.15
19 0.12
2 -0.18
20 0.84
21 -0.15
22 -0.14
24 0.14
25 0.18
26 -0.14
27 -0.15
28 -0.15
3 -0.57
32 -0.15
33 -0.15
34 -0.3
35 0.18
36 -0.15
37 -0.15
38 -0.15
39 -0.15
4 -0.57
5 -0.79
50 0.15
51 0.15
53 0.15
54 0.15
55 0.15
6 -0.66
62 0.15
63 0.15
64 0.15
65 0.15
66 0.15
67 0.15
68 0.15
69 0.15
7 -0.29
8 -0.66
9 0.37

> <PUBCHEM_EFFECTIVE_ROTOR_COUNT>
7.2

> <PUBCHEM_PHARMACOPHORE_FEATURES>
10
1 3 acceptor
1 34 hydrophobe
1 4 acceptor
1 8 donor
3 24 30 31 hydrophobe
6 15 16 18 21 23 25 rings
6 19 22 27 28 32 33 rings
6 29 35 36 37 38 39 rings
6 5 6 9 10 11 12 rings
6 7 8 13 15 16 20 rings

> <PUBCHEM_HEAVY_ATOM_COUNT>
39

> <PUBCHEM_ATOM_DEF_STEREO_COUNT>
1

> <PUBCHEM_ATOM_UDEF_STEREO_COUNT>
0

> <PUBCHEM_BOND_DEF_STEREO_COUNT>
0

> <PUBCHEM_BOND_UDEF_STEREO_COUNT>
0

> <PUBCHEM_ISOTOPIC_ATOM_COUNT>
0

> <PUBCHEM_COMPONENT_COUNT>
1

> <PUBCHEM_CACTVS_TAUTO_COUNT>
3

> <PUBCHEM_CONFORMER_ID>
080E355500000001

> <PUBCHEM_MMFF94_ENERGY>
156.5862

> <PUBCHEM_FEATURE_SELFOVERLAP>
50.771

> <PUBCHEM_SHAPE_FINGERPRINT>
10050765 1 18336551500191582186
10190206 1 18412254018188032357
10670039 82 18334580170516291758
10675989 125 17542513081423714484
11135609 187 18192420871708667429
11621639 254 18122919882907772716
11991303 11 18191015721358963837
12156800 1 17977143160852197487
12160290 23 18193529256627249689
12440605 4 18336550395941889355
12522641 68 18198340650374475541
12741549 16 17677614340848019639
12788726 201 18410005572116161379
13540713 5 18188199906719731306
13690498 29 18343024440786162716
13757389 114 18339931406924342132
13782708 43 17847062216793257630
13911987 19 18190452753793936245
14028597 1 17531243963844050915
14068700 675 18264767847034352821
14118638 360 18260266370134137458
14294032 229 18411146805119528369
14556957 393 18190191246625807876
15131766 46 16227485998955270444
15276724 80 18412549820452890363
15439362 3 17905609900062889708
15444296 8 18130220588122346287
15484559 13 17763172545715262813
1577012 14 18040158401866415172
15968369 153 18199177568023520357
16087824 20 18410575068849747465
16114785 44 18409739430642027243
20766409 102 18120099631288066492
21772528 278 18267591195616811893
22311459 1 18337115691285031098
23929065 36 18270381897977663624
2747138 104 18191593154100116354
283562 15 18335420183940550443
3552219 110 17678757827643249375
4258327 124 18040999505431586772
4403749 210 18262526867125287313
504843 32 18263642871263435941
5080951 261 18130783460286229056
508180 173 17978477010475888823
5171179 24 18057589065709745761
5912855 24 18335136449826534938
5969126 39 18341332296237473022
6677587 24 15582537552780202935

> <PUBCHEM_SHAPE_MULTIPOLES>
774.68
14.97
6.75
2.09
37.42
4.14
-1.15
3.72
-2.19
-14.92
-0.01
-1.13
-0.99
-1.37

> <PUBCHEM_SHAPE_SELFOVERLAP>
1671.099

> <PUBCHEM_SHAPE_VOLUME>
426.3

> <PUBCHEM_COORDINATE_TYPE>
2
5
10

$$$$
135148667
  -OEChem-05102415023D

 72 77  0     0  0  0  0  0  0999 V2000
   -0.4061   -3.8959    0.0953 Cl  0  0  0  0  0  0  0  0  0  0  0  0
    1.0173    3.9152   -0.7901 O   0  0  0  0  0  0  0  0  0  0  0  0
    7.6621   -1.1376    1.6712 O   0  0  0  0  0  0  0  0  0  0  0  0
    3.2351    0.0251   -0.0782 N   0  0  0  0  0  0  0  0  0  0  0  0
    6.0162   -0.3236    0.2436 N   0  0  0  0  0  0  0  0  0  0  0  0
   -0.3246    2.0384   -0.6140 N   0  0  0  0  0  0  0  0  0  0  0  0
    2.0712    1.9525   -0.4791 N   0  0  0  0  0  0  0  0  0  0  0  0
   -5.3724   -2.9952    1.9052 N   0  0  0  0  0  0  0  0  0  0  0  0
   -4.5651   -2.4015    2.8002 N   0  0  0  0  0  0  0  0  0  0  0  0
    4.0055   -0.5353   -1.1855 C   0  0  0  0  0  0  0  0  0  0  0  0
    3.7624   -0.2611    1.2537 C   0  0  0  0  0  0  0  0  0  0  0  0
    5.4617   -0.0772   -1.0971 C   0  0  0  0  0  0  0  0  0  0  0  0
    5.2081    0.2168    1.3416 C   0  0  0  0  0  0  0  0  0  0  0  0
    2.0603    0.6673   -0.2675 C   0  0  0  0  0  0  0  0  0  0  0  0
    0.7854   -0.0924   -0.2457 C   0  0  0  0  0  0  0  0  0  0  0  0
   -0.4025    0.6209   -0.4504 C   0  0  0  0  0  0  0  0  0  0  0  0
   -1.5257    2.8131   -0.7005 C   0  0  0  0  0  0  0  0  0  0  0  0
   -1.6015   -0.1091   -0.5486 C   0  0  0  0  0  0  0  0  0  0  0  0
   -1.6218   -1.4952   -0.3785 C   0  0  0  0  0  0  0  0  0  0  0  0
    0.7633   -1.4849   -0.0718 C   0  0  0  0  0  0  0  0  0  0  0  0
    7.2268   -0.9468    0.5343 C   0  0  0  0  0  0  0  0  0  0  0  0
    0.9243    2.6932   -0.6512 C   0  0  0  0  0  0  0  0  0  0  0  0
   -2.1230    3.3371    0.4458 C   0  0  0  0  0  0  0  0  0  0  0  0
   -0.4416   -2.1809   -0.1288 C   0  0  0  0  0  0  0  0  0  0  0  0
   -2.8992   -2.1775   -0.4700 C   0  0  0  0  0  0  0  0  0  0  0  0
   -1.5320    3.1086    1.7992 C   0  0  0  0  0  0  0  0  0  0  0  0
   -3.6611   -2.3439    0.6985 C   0  0  0  0  0  0  0  0  0  0  0  0
   -2.0983    3.0411   -1.9518 C   0  0  0  0  0  0  0  0  0  0  0  0
   -3.4066   -2.6771   -1.6761 C   0  0  0  0  0  0  0  0  0  0  0  0
   -3.2930    4.0892    0.3410 C   0  0  0  0  0  0  0  0  0  0  0  0
   -1.1032    4.4206    2.4806 C   0  0  0  0  0  0  0  0  0  0  0  0
   -2.4757    2.3201    2.7250 C   0  0  0  0  0  0  0  0  0  0  0  0
   -4.8877   -2.9946    0.6252 C   0  0  0  0  0  0  0  0  0  0  0  0
    8.0525   -1.4083   -0.5994 C   0  0  0  0  0  0  0  0  0  0  0  0
   -3.2684    3.7933   -2.0567 C   0  0  0  0  0  0  0  0  0  0  0  0
   -4.6416   -3.3267   -1.7214 C   0  0  0  0  0  0  0  0  0  0  0  0
   -3.8657    4.3173   -0.9104 C   0  0  0  0  0  0  0  0  0  0  0  0
   -5.4116   -3.4999   -0.5666 C   0  0  0  0  0  0  0  0  0  0  0  0
   -3.5252   -2.0064    2.0623 C   0  0  0  0  0  0  0  0  0  0  0  0
   -2.6378   -2.5256   -2.9511 C   0  0  0  0  0  0  0  0  0  0  0  0
    8.8394   -2.4732   -0.4319 C   0  0  0  0  0  0  0  0  0  0  0  0
    3.5839   -0.2295   -2.1503 H   0  0  0  0  0  0  0  0  0  0  0  0
    3.9545   -1.6298   -1.1387 H   0  0  0  0  0  0  0  0  0  0  0  0
    3.7105   -1.3406    1.4395 H   0  0  0  0  0  0  0  0  0  0  0  0
    3.1642    0.2352    2.0268 H   0  0  0  0  0  0  0  0  0  0  0  0
    6.0332   -0.5805   -1.8779 H   0  0  0  0  0  0  0  0  0  0  0  0
    5.5326    1.0027   -1.2744 H   0  0  0  0  0  0  0  0  0  0  0  0
    5.2532    1.3098    1.2599 H   0  0  0  0  0  0  0  0  0  0  0  0
    5.6311   -0.0568    2.3132 H   0  0  0  0  0  0  0  0  0  0  0  0
   -2.5419    0.4038   -0.7409 H   0  0  0  0  0  0  0  0  0  0  0  0
    1.6839   -2.0377    0.0951 H   0  0  0  0  0  0  0  0  0  0  0  0
   -0.6205    2.5062    1.7335 H   0  0  0  0  0  0  0  0  0  0  0  0
   -1.6419    2.6384   -2.8524 H   0  0  0  0  0  0  0  0  0  0  0  0
   -3.7777    4.5080    1.2184 H   0  0  0  0  0  0  0  0  0  0  0  0
   -0.5929    4.2123    3.4273 H   0  0  0  0  0  0  0  0  0  0  0  0
   -0.4111    4.9819    1.8430 H   0  0  0  0  0  0  0  0  0  0  0  0
   -1.9581    5.0688    2.7009 H   0  0  0  0  0  0  0  0  0  0  0  0
   -2.7735    1.3728    2.2621 H   0  0  0  0  0  0  0  0  0  0  0  0
   -1.9779    2.0880    3.6729 H   0  0  0  0  0  0  0  0  0  0  0  0
   -3.3871    2.8808    2.9582 H   0  0  0  0  0  0  0  0  0  0  0  0
    8.0556   -0.8694   -1.5375 H   0  0  0  0  0  0  0  0  0  0  0  0
   -3.7144    3.9708   -3.0310 H   0  0  0  0  0  0  0  0  0  0  0  0
   -5.0292   -3.7119   -2.6620 H   0  0  0  0  0  0  0  0  0  0  0  0
   -4.7768    4.9028   -0.9923 H   0  0  0  0  0  0  0  0  0  0  0  0
   -6.3710   -4.0040   -0.5998 H   0  0  0  0  0  0  0  0  0  0  0  0
   -2.7118   -1.4886    2.5511 H   0  0  0  0  0  0  0  0  0  0  0  0
   -2.4792   -1.4676   -3.1838 H   0  0  0  0  0  0  0  0  0  0  0  0
   -1.6706   -3.0339   -2.8843 H   0  0  0  0  0  0  0  0  0  0  0  0
   -3.1716   -2.9637   -3.8018 H   0  0  0  0  0  0  0  0  0  0  0  0
   -6.2470   -3.3842    2.2349 H   0  0  0  0  0  0  0  0  0  0  0  0
    9.4698   -2.8133   -1.2470 H   0  0  0  0  0  0  0  0  0  0  0  0
    8.8788   -3.0367    0.4939 H   0  0  0  0  0  0  0  0  0  0  0  0
  1 24  1  0  0  0  0
  2 22  2  0  0  0  0
  3 21  2  0  0  0  0
  4 10  1  0  0  0  0
  4 11  1  0  0  0  0
  4 14  1  0  0  0  0
  5 12  1  0  0  0  0
  5 13  1  0  0  0  0
  5 21  1  0  0  0  0
  6 16  1  0  0  0  0
  6 17  1  0  0  0  0
  6 22  1  0  0  0  0
  7 14  2  0  0  0  0
  7 22  1  0  0  0  0
  8  9  1  0  0  0  0
  8 33  1  0  0  0  0
  8 70  1  0  0  0  0
  9 39  2  0  0  0  0
 10 12  1  0  0  0  0
 10 42  1  0  0  0  0
 10 43  1  0  0  0  0
 11 13  1  0  0  0  0
 11 44  1  0  0  0  0
 11 45  1  0  0  0  0
 12 46  1  0  0  0  0
 12 47  1  0  0  0  0
 13 48  1  0  0  0  0
 13 49  1  0  0  0  0
 14 15  1  0  0  0  0
 15 16  1  0  0  0  0
 15 20  2  0  0  0  0
 16 18  2  0  0  0  0
 17 23  1  0  0  0  0
 17 28  2  0  0  0  0
 18 19  1  0  0  0  0
 18 50  1  0  0  0  0
 19 24  2  0  0  0  0
 19 25  1  0  0  0  0
 20 24  1  0  0  0  0
 20 51  1  0  0  0  0
 21 34  1  0  0  0  0
 23 26  1  0  0  0  0
 23 30  2  0  0  0  0
 25 27  1  0  0  0  0
 25 29  2  0  0  0  0
 26 31  1  0  0  0  0
 26 32  1  0  0  0  0
 26 52  1  0  0  0  0
 27 33  2  0  0  0  0
 27 39  1  0  0  0  0
 28 35  1  0  0  0  0
 28 53  1  0  0  0  0
 29 36  1  0  0  0  0
 29 40  1  0  0  0  0
 30 37  1  0  0  0  0
 30 54  1  0  0  0  0
 31 55  1  0  0  0  0
 31 56  1  0  0  0  0
 31 57  1  0  0  0  0
 32 58  1  0  0  0  0
 32 59  1  0  0  0  0
 32 60  1  0  0  0  0
 33 38  1  0  0  0  0
 34 41  2  0  0  0  0
 34 61  1  0  0  0  0
 35 37  2  0  0  0  0
 35 62  1  0  0  0  0
 36 38  2  0  0  0  0
 36 63  1  0  0  0  0
 37 64  1  0  0  0  0
 38 65  1  0  0  0  0
 39 66  1  0  0  0  0
 40 67  1  0  0  0  0
 40 68  1  0  0  0  0
 40 69  1  0  0  0  0
 41 71  1  0  0  0  0
 41 72  1  0  0  0  0
M  END
> <PUBCHEM_COMPOUND_CID>
135148667

> <PUBCHEM_CONFORMER_RMSD>
1

> <PUBCHEM_CONFORMER_DIVERSEORDER>
2
9
8
6
1
14
13
10
7
11
12
3
4
5

> <PUBCHEM_MMFF94_PARTIAL_CHARGES>
49
1 -0.18
10 0.37
11 0.37
12 0.3
13 0.3
14 0.41
15 0.09
16 0.12
17 0.12
18 -0.15
2 -0.57
20 -0.15
21 0.62
22 0.84
23 -0.14
24 0.18
26 0.14
28 -0.15
29 -0.14
3 -0.57
30 -0.15
33 -0.15
34 -0.14
35 -0.15
36 -0.15
37 -0.15
38 -0.15
39 0.14
4 -0.79
40 0.14
41 -0.3
5 -0.66
50 0.15
51 0.15
53 0.15
54 0.15
6 -0.29
61 0.15
62 0.15
63 0.15
64 0.15
65 0.15
66 0.15
7 -0.66
70 0.27
71 0.15
72 0.15
8 0.3
9 -0.71

> <PUBCHEM_EFFECTIVE_ROTOR_COUNT>
7.2

> <PUBCHEM_PHARMACOPHORE_FEATURES>
13
1 2 acceptor
1 3 acceptor
1 41 hydrophobe
1 7 donor
1 8 donor
1 9 acceptor
3 26 31 32 hydrophobe
5 8 9 27 33 39 rings
6 15 16 18 19 20 24 rings
6 17 23 28 30 35 37 rings
6 25 27 29 33 36 38 rings
6 4 5 10 11 12 13 rings
6 6 7 14 15 16 22 rings

> <PUBCHEM_HEAVY_ATOM_COUNT>
41

> <PUBCHEM_ATOM_DEF_STEREO_COUNT>
0

> <PUBCHEM_ATOM_UDEF_STEREO_COUNT>
0

> <PUBCHEM_BOND_DEF_STEREO_COUNT>
0

> <PUBCHEM_BOND_UDEF_STEREO_COUNT>
0

> <PUBCHEM_ISOTOPIC_ATOM_COUNT>
0

> <PUBCHEM_COMPONENT_COUNT>
1

> <PUBCHEM_CACTVS_TAUTO_COUNT>
156

> <PUBCHEM_CONFORMER_ID>
080E347B00000002

> <PUBCHEM_MMFF94_ENERGY>
156.995

> <PUBCHEM_FEATURE_SELFOVERLAP>
66.088

> <PUBCHEM_SHAPE_FINGERPRINT>
11062273 23 18412550877510444763
11377469 6 17894625994071791766
11456790 92 18191601929330920643
11991303 11 18043528313803635053
12160290 23 18339377270512019285
12440605 4 18191581956693828755
12522641 33 17972874757961493669
12788726 201 18336832004077733910
13540713 5 18261692440720550652
13692115 27 18410861001005226196
13782708 43 18131343117055334454
14068700 675 18339072800048024558
14118638 360 18260831545049131004
14674994 50 18343580738252298917
15200665 1 18339638915355919656
15276724 80 18340207518134856876
15484559 13 17762040057323417805
15775530 1 17843133506337471438
15927050 60 18122618354021725622
17686467 74 18261948657463688544
19301676 85 17261599465940297414
19301679 30 18335711537083942618
21133410 90 17346317159709809801
21639891 77 18413103953155341424
23569943 247 18342735200805279106
3504750 166 17988925595410920286
4409770 3 18341889659108530573
469060 322 18261407636463164121
504843 32 18044091255352095093
5080951 261 18342451513196302120
508180 173 18051380098801011311
513202 73 18411140246783699038
5912855 24 18115298961324742378
9896288 288 18269563740655803889

> <PUBCHEM_SHAPE_MULTIPOLES>
804.01
15.91
6.88
2.29
45.47
4.59
0.71
-15.3
1.95
-12.6
-0.23
-2.91
0.35
0.67

> <PUBCHEM_SHAPE_SELFOVERLAP>
1769.085

> <PUBCHEM_SHAPE_VOLUME>
434

> <PUBCHEM_COORDINATE_TYPE>
2
5
10

$$$$
146235452
  -OEChem-05102415023D

 71 75  0     1  0  0  0  0  0999 V2000
    0.2013   -3.5850   -0.0238 F   0  0  0  0  0  0  0  0  0  0  0  0
   -1.7811   -3.5339   -2.0705 F   0  0  0  0  0  0  0  0  0  0  0  0
    7.4263   -0.6556   -1.2627 O   0  0  0  0  0  0  0  0  0  0  0  0
   -0.2379    3.9715    0.4122 O   0  0  0  0  0  0  0  0  0  0  0  0
   -3.3071   -1.9874    2.1895 O   0  0  0  0  0  0  0  0  0  0  0  0
    2.9502    0.7518    0.1171 N   0  0  0  0  0  0  0  0  0  0  0  0
    5.4340   -0.5976   -0.0635 N   0  0  0  0  0  0  0  0  0  0  0  0
   -1.0342    1.7994    0.3294 N   0  0  0  0  0  0  0  0  0  0  0  0
    1.3025    2.3435    0.2252 N   0  0  0  0  0  0  0  0  0  0  0  0
   -1.7262   -0.5207    0.1855 N   0  0  0  0  0  0  0  0  0  0  0  0
   -4.3362    2.7113    1.7830 N   0  0  0  0  0  0  0  0  0  0  0  0
    3.6799    0.7835   -1.1577 C   0  0  2  0  0  0  0  0  0  0  0  0
    4.6154   -0.4243   -1.2628 C   0  0  0  0  0  0  0  0  0  0  0  0
    3.7305    0.5277    1.3345 C   0  0  0  0  0  0  0  0  0  0  0  0
    4.6692   -0.6668    1.1859 C   0  0  0  0  0  0  0  0  0  0  0  0
    1.6381    1.0861    0.1811 C   0  0  0  0  0  0  0  0  0  0  0  0
    4.4298    2.1075   -1.3073 C   0  0  0  0  0  0  0  0  0  0  0  0
    0.6051    0.0254    0.1910 C   0  0  0  0  0  0  0  0  0  0  0  0
    6.8150   -0.7189   -0.1947 C   0  0  0  0  0  0  0  0  0  0  0  0
   -0.7321    0.4041    0.2529 C   0  0  0  0  0  0  0  0  0  0  0  0
   -2.4123    2.1963    0.4126 C   0  0  0  0  0  0  0  0  0  0  0  0
   -0.0060    2.7647    0.3114 C   0  0  0  0  0  0  0  0  0  0  0  0
    0.9238   -1.3339    0.1031 C   0  0  0  0  0  0  0  0  0  0  0  0
   -3.1544    2.4468   -0.7363 C   0  0  0  0  0  0  0  0  0  0  0  0
   -2.5500    2.3127   -2.0958 C   0  0  0  0  0  0  0  0  0  0  0  0
    7.6060   -0.9432    1.0318 C   0  0  0  0  0  0  0  0  0  0  0  0
   -0.0900   -2.2808    0.0624 C   0  0  0  0  0  0  0  0  0  0  0  0
   -1.3903   -1.8259    0.1010 C   0  0  0  0  0  0  0  0  0  0  0  0
   -3.0440    2.3415    1.6372 C   0  0  0  0  0  0  0  0  0  0  0  0
   -4.4867    2.8293   -0.6270 C   0  0  0  0  0  0  0  0  0  0  0  0
   -2.5385    3.6455   -2.8663 C   0  0  0  0  0  0  0  0  0  0  0  0
   -3.2392    1.2248   -2.9396 C   0  0  0  0  0  0  0  0  0  0  0  0
   -2.5073   -2.7384    0.0505 C   0  0  0  0  0  0  0  0  0  0  0  0
   -2.3009    2.0885    2.9091 C   0  0  0  0  0  0  0  0  0  0  0  0
   -5.0257    2.9462    0.6441 C   0  0  0  0  0  0  0  0  0  0  0  0
    8.8574   -0.4825    1.0852 C   0  0  0  0  0  0  0  0  0  0  0  0
   -3.4301   -2.7914    1.0950 C   0  0  0  0  0  0  0  0  0  0  0  0
   -2.6592   -3.5723   -1.0574 C   0  0  0  0  0  0  0  0  0  0  0  0
   -4.5048   -3.6783    1.0317 C   0  0  0  0  0  0  0  0  0  0  0  0
   -3.7339   -4.4591   -1.1206 C   0  0  0  0  0  0  0  0  0  0  0  0
   -4.6567   -4.5121   -0.0760 C   0  0  0  0  0  0  0  0  0  0  0  0
    2.9624    0.7165   -1.9863 H   0  0  0  0  0  0  0  0  0  0  0  0
    4.0246   -1.3429   -1.3677 H   0  0  0  0  0  0  0  0  0  0  0  0
    5.2392   -0.3460   -2.1595 H   0  0  0  0  0  0  0  0  0  0  0  0
    3.0691    0.3585    2.1929 H   0  0  0  0  0  0  0  0  0  0  0  0
    4.3101    1.4319    1.5547 H   0  0  0  0  0  0  0  0  0  0  0  0
    5.3137   -0.7115    2.0646 H   0  0  0  0  0  0  0  0  0  0  0  0
    4.0973   -1.6012    1.1539 H   0  0  0  0  0  0  0  0  0  0  0  0
    5.1872    2.2424   -0.5282 H   0  0  0  0  0  0  0  0  0  0  0  0
    3.7409    2.9567   -1.2480 H   0  0  0  0  0  0  0  0  0  0  0  0
    4.9364    2.1548   -2.2771 H   0  0  0  0  0  0  0  0  0  0  0  0
    1.9514   -1.6763    0.0512 H   0  0  0  0  0  0  0  0  0  0  0  0
   -1.5004    2.0083   -2.0299 H   0  0  0  0  0  0  0  0  0  0  0  0
    7.1992   -1.5112    1.8576 H   0  0  0  0  0  0  0  0  0  0  0  0
   -5.1048    3.0348   -1.4940 H   0  0  0  0  0  0  0  0  0  0  0  0
   -3.5502    4.0009   -3.0888 H   0  0  0  0  0  0  0  0  0  0  0  0
   -2.0279    4.4240   -2.2886 H   0  0  0  0  0  0  0  0  0  0  0  0
   -2.0094    3.5335   -3.8191 H   0  0  0  0  0  0  0  0  0  0  0  0
   -4.2802    1.4784   -3.1666 H   0  0  0  0  0  0  0  0  0  0  0  0
   -2.7158    1.0891   -3.8923 H   0  0  0  0  0  0  0  0  0  0  0  0
   -3.2347    0.2629   -2.4149 H   0  0  0  0  0  0  0  0  0  0  0  0
   -2.9420    2.2753    3.7776 H   0  0  0  0  0  0  0  0  0  0  0  0
   -1.9695    1.0470    2.9645 H   0  0  0  0  0  0  0  0  0  0  0  0
   -1.4348    2.7522    2.9931 H   0  0  0  0  0  0  0  0  0  0  0  0
   -6.0604    3.2414    0.7838 H   0  0  0  0  0  0  0  0  0  0  0  0
    9.4613   -0.6588    1.9694 H   0  0  0  0  0  0  0  0  0  0  0  0
    9.3131    0.0796    0.2774 H   0  0  0  0  0  0  0  0  0  0  0  0
   -5.2319   -3.7307    1.8376 H   0  0  0  0  0  0  0  0  0  0  0  0
   -3.8520   -5.1082   -1.9832 H   0  0  0  0  0  0  0  0  0  0  0  0
   -5.4935   -5.2027   -0.1255 H   0  0  0  0  0  0  0  0  0  0  0  0
   -4.0412   -2.1669    2.8016 H   0  0  0  0  0  0  0  0  0  0  0  0
  1 27  1  0  0  0  0
  2 38  1  0  0  0  0
  3 19  2  0  0  0  0
  4 22  2  0  0  0  0
  5 37  1  0  0  0  0
  5 71  1  0  0  0  0
  6 12  1  0  0  0  0
  6 14  1  0  0  0  0
  6 16  1  0  0  0  0
  7 13  1  0  0  0  0
  7 15  1  0  0  0  0
  7 19  1  0  0  0  0
  8 20  1  0  0  0  0
  8 21  1  0  0  0  0
  8 22  1  0  0  0  0
  9 16  2  0  0  0  0
  9 22  1  0  0  0  0
 10 20  2  0  0  0  0
 10 28  1  0  0  0  0
 11 29  2  0  0  0  0
 11 35  1  0  0  0  0
 12 13  1  0  0  0  0
 12 17  1  0  0  0  0
 12 42  1  0  0  0  0
 13 43  1  0  0  0  0
 13 44  1  0  0  0  0
 14 15  1  0  0  0  0
 14 45  1  0  0  0  0
 14 46  1  0  0  0  0
 15 47  1  0  0  0  0
 15 48  1  0  0  0  0
 16 18  1  0  0  0  0
 17 49  1  0  0  0  0
 17 50  1  0  0  0  0
 17 51  1  0  0  0  0
 18 20  1  0  0  0  0
 18 23  2  0  0  0  0
 19 26  1  0  0  0  0
 21 24  2  0  0  0  0
 21 29  1  0  0  0  0
 23 27  1  0  0  0  0
 23 52  1  0  0  0  0
 24 25  1  0  0  0  0
 24 30  1  0  0  0  0
 25 31  1  0  0  0  0
 25 32  1  0  0  0  0
 25 53  1  0  0  0  0
 26 36  2  0  0  0  0
 26 54  1  0  0  0  0
 27 28  2  0  0  0  0
 28 33  1  0  0  0  0
 29 34  1  0  0  0  0
 30 35  2  0  0  0  0
 30 55  1  0  0  0  0
 31 56  1  0  0  0  0
 31 57  1  0  0  0  0
 31 58  1  0  0  0  0
 32 59  1  0  0  0  0
 32 60  1  0  0  0  0
 32 61  1  0  0  0  0
 33 37  2  0  0  0  0
 33 38  1  0  0  0  0
 34 62  1  0  0  0  0
 34 63  1  0  0  0  0
 34 64  1  0  0  0  0
 35 65  1  0  0  0  0
 36 66  1  0  0  0  0
 36 67  1  0  0  0  0
 37 39  1  0  0  0  0
 38 40  2  0  0  0  0
 39 41  2  0  0  0  0
 39 68  1  0  0  0  0
 40 41  1  0  0  0  0
 40 69  1  0  0  0  0
 41 70  1  0  0  0  0
M  END
> <PUBCHEM_COMPOUND_CID>
146235452

> <PUBCHEM_CONFORMER_RMSD>
1

> <PUBCHEM_CONFORMER_DIVERSEORDER>
2
5
27
28
47
30
25
42
44
34
40
32
15
24
31
33
35
38
29
46
19
14
37
36
20
26
43
18
12
11
23
9
45
17
41
1
39
21
13
16
4
10
22
8
7
3
6

> <PUBCHEM_MMFF94_PARTIAL_CHARGES>
47
1 -0.19
10 -0.62
11 -0.62
12 0.37
13 0.3
14 0.37
15 0.3
16 0.41
18 0.09
19 0.62
2 -0.19
20 0.43
21 0.12
22 0.84
23 -0.15
24 -0.14
25 0.14
26 -0.14
27 0.19
28 0.31
29 0.17
3 -0.57
30 -0.15
34 0.14
35 0.16
36 -0.3
37 0.08
38 0.19
39 -0.15
4 -0.57
40 -0.15
41 -0.15
5 -0.53
52 0.15
54 0.15
55 0.15
6 -0.79
65 0.15
66 0.15
67 0.15
68 0.15
69 0.15
7 -0.66
70 0.15
71 0.45
8 -0.29
9 -0.66

> <PUBCHEM_EFFECTIVE_ROTOR_COUNT>
7.2

> <PUBCHEM_PHARMACOPHORE_FEATURES>
12
1 11 acceptor
1 3 acceptor
1 36 hydrophobe
1 4 acceptor
1 5 donor
1 9 donor
3 25 31 32 hydrophobe
6 10 18 20 23 27 28 rings
6 11 21 24 29 30 35 rings
6 33 37 38 39 40 41 rings
6 6 7 12 13 14 15 rings
6 8 9 16 18 20 22 rings

> <PUBCHEM_HEAVY_ATOM_COUNT>
41

> <PUBCHEM_ATOM_DEF_STEREO_COUNT>
1

> <PUBCHEM_ATOM_UDEF_STEREO_COUNT>
0

> <PUBCHEM_BOND_DEF_STEREO_COUNT>
0

> <PUBCHEM_BOND_UDEF_STEREO_COUNT>
0

> <PUBCHEM_ISOTOPIC_ATOM_COUNT>
0

> <PUBCHEM_COMPONENT_COUNT>
1

> <PUBCHEM_CACTVS_TAUTO_COUNT>
-1

> <PUBCHEM_CONFORMER_ID>
08B7603C00000002

> <PUBCHEM_MMFF94_ENERGY>
153.7923

> <PUBCHEM_FEATURE_SELFOVERLAP>
60.925

> <PUBCHEM_SHAPE_FINGERPRINT>
10050765 1 18339926034458013280
10119406 146 18126287433446474230
11331351 85 18055637476327354319
11991303 11 18188485766335454319
12156800 1 18050607111718723581
12160290 23 18265877194601434033
12633046 712 18272932739401064680
12788726 201 18196097861338691338
13140716 1 18412547621730724872
13540713 4 18196914755945590544
13540713 5 18263094360969049356
13583140 156 16950853496537219968
13690498 29 18334857272768201494
13692114 37 18272931605856129401
13692115 27 18337952423543386546
13911987 19 18192138301103593029
14068700 675 18269556211641865931
14118638 360 18189056572591291836
14347332 77 18337674230254038462
14866123 147 18411426124107091483
14955137 171 17833561463476206755
15021287 119 17168148932010489660
15276724 80 18194692689810297380
15324884 4 17466547450194126665
15439362 3 17905602203708147350
15484559 13 17833801934067060901
19301679 30 18268153239168798194
19311894 1 18410856547087547896
20766409 102 18194122052789257796
21033648 29 12749868137726403994
22223350 30 18342167869509365200
22311459 1 18338519617325676304
23559900 14 18343574137082873864
23576562 1 18041287642045024900
244849 19 17131251554906910530
3383291 50 18272930518728477159
3504750 166 18413669119639181374
354706 35 17973421236635739717
4073 2 18202280287300792594
4409770 3 18342455950578319091
4516262 110 17839465480182653753
469060 322 17895202168155612017
484985 159 18411418419046343467
504843 32 18262514767858450709
5080951 261 18338785767589393302
513202 73 18335427914596872411
5171179 24 18127689542035198633
6669772 16 18055918688482599599
6691757 9 18272654498022531752
70251023 43 18049724319265610395

> <PUBCHEM_SHAPE_MULTIPOLES>
781.72
15.24
6.12
2.14
40.67
3.8
0.45
4.65
-1.55
-13.08
1.14
-2.04
-1.38
-0.46

> <PUBCHEM_SHAPE_SELFOVERLAP>
1711.474

> <PUBCHEM_SHAPE_VOLUME>
423.8

> <PUBCHEM_COORDINATE_TYPE>
2
5
10

$$$$
146235857
  -OEChem-05102415023D

 66 70  0     1  0  0  0  0  0999 V2000
    0.0233   -3.8356    0.0141 Cl  0  0  0  0  0  0  0  0  0  0  0  0
   -2.7470   -2.4680   -2.4024 F   0  0  0  0  0  0  0  0  0  0  0  0
    7.2866   -0.8899   -1.1991 O   0  0  0  0  0  0  0  0  0  0  0  0
   -0.2201    4.1158    0.0455 O   0  0  0  0  0  0  0  0  0  0  0  0
   -2.8728   -2.5446    2.3773 O   0  0  0  0  0  0  0  0  0  0  0  0
    2.8409    0.7623   -0.0047 N   0  0  0  0  0  0  0  0  0  0  0  0
    5.2715   -0.6910   -0.0542 N   0  0  0  0  0  0  0  0  0  0  0  0
   -1.1016    1.9753    0.0547 N   0  0  0  0  0  0  0  0  0  0  0  0
    1.2569    2.4210   -0.0193 N   0  0  0  0  0  0  0  0  0  0  0  0
   -1.8835   -0.3203    0.0131 N   0  0  0  0  0  0  0  0  0  0  0  0
    3.6001    0.6987   -1.2610 C   0  0  2  0  0  0  0  0  0  0  0  0
    4.4880   -0.5487   -1.2807 C   0  0  0  0  0  0  0  0  0  0  0  0
    3.5836    0.5718    1.2416 C   0  0  0  0  0  0  0  0  0  0  0  0
    4.4764   -0.6647    1.1778 C   0  0  0  0  0  0  0  0  0  0  0  0
    1.5423    1.1508    0.0095 C   0  0  0  0  0  0  0  0  0  0  0  0
    4.4061    1.9826   -1.4598 C   0  0  0  0  0  0  0  0  0  0  0  0
    0.4672    0.1334    0.0483 C   0  0  0  0  0  0  0  0  0  0  0  0
    6.6491   -0.8732   -0.1447 C   0  0  0  0  0  0  0  0  0  0  0  0
   -0.8546    0.5671    0.0575 C   0  0  0  0  0  0  0  0  0  0  0  0
    0.7326   -1.2401    0.0383 C   0  0  0  0  0  0  0  0  0  0  0  0
   -0.0350    2.8971    0.0127 C   0  0  0  0  0  0  0  0  0  0  0  0
   -2.4640    2.4297    0.0833 C   0  0  0  0  0  0  0  0  0  0  0  0
    7.4023   -1.0639    1.1109 C   0  0  0  0  0  0  0  0  0  0  0  0
   -0.3175   -2.1472    0.0212 C   0  0  0  0  0  0  0  0  0  0  0  0
   -1.5989   -1.6403    0.0041 C   0  0  0  0  0  0  0  0  0  0  0  0
   -3.0979    2.6577    1.3046 C   0  0  0  0  0  0  0  0  0  0  0  0
   -3.1536    2.6417   -1.1106 C   0  0  0  0  0  0  0  0  0  0  0  0
   -2.7750   -2.4822   -0.0239 C   0  0  0  0  0  0  0  0  0  0  0  0
   -4.4213    3.0975    1.3321 C   0  0  0  0  0  0  0  0  0  0  0  0
   -4.4770    3.0815   -1.0831 C   0  0  0  0  0  0  0  0  0  0  0  0
   -2.3853    2.4403    2.6002 C   0  0  0  0  0  0  0  0  0  0  0  0
   -2.5025    2.4051   -2.4350 C   0  0  0  0  0  0  0  0  0  0  0  0
    8.6698   -0.6505    1.1715 C   0  0  0  0  0  0  0  0  0  0  0  0
   -5.1108    3.3095    0.1384 C   0  0  0  0  0  0  0  0  0  0  0  0
   -3.3736   -2.9074    1.1619 C   0  0  0  0  0  0  0  0  0  0  0  0
   -3.3102   -2.8682   -1.2529 C   0  0  0  0  0  0  0  0  0  0  0  0
   -4.5075   -3.7188    1.1189 C   0  0  0  0  0  0  0  0  0  0  0  0
   -4.4440   -3.6795   -1.2959 C   0  0  0  0  0  0  0  0  0  0  0  0
   -5.0426   -4.1048   -0.1100 C   0  0  0  0  0  0  0  0  0  0  0  0
    2.8994    0.6166   -2.1026 H   0  0  0  0  0  0  0  0  0  0  0  0
    3.8631   -1.4477   -1.3529 H   0  0  0  0  0  0  0  0  0  0  0  0
    5.1346   -0.5420   -2.1646 H   0  0  0  0  0  0  0  0  0  0  0  0
    2.8966    0.4738    2.0909 H   0  0  0  0  0  0  0  0  0  0  0  0
    4.1942    1.4629    1.4293 H   0  0  0  0  0  0  0  0  0  0  0  0
    5.0984   -0.6885    2.0733 H   0  0  0  0  0  0  0  0  0  0  0  0
    3.8681   -1.5765    1.1798 H   0  0  0  0  0  0  0  0  0  0  0  0
    5.1504    2.1282   -0.6701 H   0  0  0  0  0  0  0  0  0  0  0  0
    3.7510    2.8601   -1.4612 H   0  0  0  0  0  0  0  0  0  0  0  0
    4.9361    1.9592   -2.4179 H   0  0  0  0  0  0  0  0  0  0  0  0
    1.7532   -1.6090    0.0307 H   0  0  0  0  0  0  0  0  0  0  0  0
    6.9542   -1.5715    1.9545 H   0  0  0  0  0  0  0  0  0  0  0  0
   -4.9308    3.2797    2.2746 H   0  0  0  0  0  0  0  0  0  0  0  0
   -5.0297    3.2510   -2.0033 H   0  0  0  0  0  0  0  0  0  0  0  0
   -2.1160    1.3859    2.7196 H   0  0  0  0  0  0  0  0  0  0  0  0
   -3.0099    2.7143    3.4576 H   0  0  0  0  0  0  0  0  0  0  0  0
   -1.4812    3.0552    2.6540 H   0  0  0  0  0  0  0  0  0  0  0  0
   -1.5978    3.0130   -2.5373 H   0  0  0  0  0  0  0  0  0  0  0  0
   -3.1638    2.6751   -3.2658 H   0  0  0  0  0  0  0  0  0  0  0  0
   -2.2463    1.3478   -2.5557 H   0  0  0  0  0  0  0  0  0  0  0  0
    9.2458   -0.8038    2.0783 H   0  0  0  0  0  0  0  0  0  0  0  0
    9.1661   -0.1497    0.3474 H   0  0  0  0  0  0  0  0  0  0  0  0
   -6.1414    3.6516    0.1599 H   0  0  0  0  0  0  0  0  0  0  0  0
   -4.9849   -4.0579    2.0344 H   0  0  0  0  0  0  0  0  0  0  0  0
   -4.8606   -3.9799   -2.2528 H   0  0  0  0  0  0  0  0  0  0  0  0
   -5.9255   -4.7364   -0.1437 H   0  0  0  0  0  0  0  0  0  0  0  0
   -3.4222   -2.9353    3.0783 H   0  0  0  0  0  0  0  0  0  0  0  0
  1 24  1  0  0  0  0
  2 36  1  0  0  0  0
  3 18  2  0  0  0  0
  4 21  2  0  0  0  0
  5 35  1  0  0  0  0
  5 66  1  0  0  0  0
  6 11  1  0  0  0  0
  6 13  1  0  0  0  0
  6 15  1  0  0  0  0
  7 12  1  0  0  0  0
  7 14  1  0  0  0  0
  7 18  1  0  0  0  0
  8 19  1  0  0  0  0
  8 21  1  0  0  0  0
  8 22  1  0  0  0  0
  9 15  2  0  0  0  0
  9 21  1  0  0  0  0
 10 19  2  0  0  0  0
 10 25  1  0  0  0  0
 11 12  1  0  0  0  0
 11 16  1  0  0  0  0
 11 40  1  0  0  0  0
 12 41  1  0  0  0  0
 12 42  1  0  0  0  0
 13 14  1  0  0  0  0
 13 43  1  0  0  0  0
 13 44  1  0  0  0  0
 14 45  1  0  0  0  0
 14 46  1  0  0  0  0
 15 17  1  0  0  0  0
 16 47  1  0  0  0  0
 16 48  1  0  0  0  0
 16 49  1  0  0  0  0
 17 19  1  0  0  0  0
 17 20  2  0  0  0  0
 18 23  1  0  0  0  0
 20 24  1  0  0  0  0
 20 50  1  0  0  0  0
 22 26  2  0  0  0  0
 22 27  1  0  0  0  0
 23 33  2  0  0  0  0
 23 51  1  0  0  0  0
 24 25  2  0  0  0  0
 25 28  1  0  0  0  0
 26 29  1  0  0  0  0
 26 31  1  0  0  0  0
 27 30  2  0  0  0  0
 27 32  1  0  0  0  0
 28 35  2  0  0  0  0
 28 36  1  0  0  0  0
 29 34  2  0  0  0  0
 29 52  1  0  0  0  0
 30 34  1  0  0  0  0
 30 53  1  0  0  0  0
 31 54  1  0  0  0  0
 31 55  1  0  0  0  0
 31 56  1  0  0  0  0
 32 57  1  0  0  0  0
 32 58  1  0  0  0  0
 32 59  1  0  0  0  0
 33 60  1  0  0  0  0
 33 61  1  0  0  0  0
 34 62  1  0  0  0  0
 35 37  1  0  0  0  0
 36 38  2  0  0  0  0
 37 39  2  0  0  0  0
 37 63  1  0  0  0  0
 38 39  1  0  0  0  0
 38 64  1  0  0  0  0
 39 65  1  0  0  0  0
M  END
> <PUBCHEM_COMPOUND_CID>
146235857

> <PUBCHEM_CONFORMER_RMSD>
1

> <PUBCHEM_CONFORMER_DIVERSEORDER>
1
8
7
10
16
14
15
9
5
3
11
12
6
13
4
2

> <PUBCHEM_MMFF94_PARTIAL_CHARGES>
48
1 -0.18
10 -0.62
11 0.37
12 0.3
13 0.37
14 0.3
15 0.41
17 0.09
18 0.62
19 0.43
2 -0.19
20 -0.15
21 0.84
22 0.12
23 -0.14
24 0.18
25 0.31
26 -0.14
27 -0.14
29 -0.15
3 -0.57
30 -0.15
31 0.14
32 0.14
33 -0.3
34 -0.15
35 0.08
36 0.19
37 -0.15
38 -0.15
39 -0.15
4 -0.57
5 -0.53
50 0.15
51 0.15
52 0.15
53 0.15
6 -0.79
60 0.15
61 0.15
62 0.15
63 0.15
64 0.15
65 0.15
66 0.45
7 -0.66
8 -0.29
9 -0.66

> <PUBCHEM_EFFECTIVE_ROTOR_COUNT>
6.2

> <PUBCHEM_PHARMACOPHORE_FEATURES>
10
1 3 acceptor
1 33 hydrophobe
1 4 acceptor
1 5 donor
1 9 donor
6 10 17 19 20 24 25 rings
6 22 26 27 29 30 34 rings
6 28 35 36 37 38 39 rings
6 6 7 11 12 13 14 rings
6 8 9 15 17 19 21 rings

> <PUBCHEM_HEAVY_ATOM_COUNT>
39

> <PUBCHEM_ATOM_DEF_STEREO_COUNT>
1

> <PUBCHEM_ATOM_UDEF_STEREO_COUNT>
0

> <PUBCHEM_BOND_DEF_STEREO_COUNT>
0

> <PUBCHEM_BOND_UDEF_STEREO_COUNT>
0

> <PUBCHEM_ISOTOPIC_ATOM_COUNT>
0

> <PUBCHEM_COMPONENT_COUNT>
1

> <PUBCHEM_CACTVS_TAUTO_COUNT>
-1

> <PUBCHEM_CONFORMER_ID>
08B761D100000001

> <PUBCHEM_MMFF94_ENERGY>
150.5198

> <PUBCHEM_FEATURE_SELFOVERLAP>
50.775

> <PUBCHEM_SHAPE_FINGERPRINT>
10050765 1 18338236076427660436
10119406 146 18053949455211045670
10411042 1 18266456697111452803
11991303 11 18261674779777482413
12156800 1 18123152867486739201
12293681 25 17630909113549185702
12422481 6 17773339974455620807
12440605 4 18192170375581782329
12788726 201 18267590293377780126
13140716 1 18411984667492905040
13540713 4 18270101539724578936
13540713 5 18262813968202882044
13583140 156 17023478430011642808
13692114 37 18202003197369926009
13692115 27 18339083812233693550
13782708 43 17917711323445756886
13911987 19 18046051680200041645
140371 6 17831018288295206160
14068700 675 18269832176222917631
14118638 360 18262522628134269684
14279260 333 18339066112631724038
14347332 77 18338800121438973846
14866123 147 18409733963080009387
15021287 119 17168150018542406476
15131766 46 16011887179639804692
15276724 80 18194974156049471420
15297060 5 18271801264309550674
15439362 3 17907294351855244852
15484559 13 18052524479778250021
1577012 14 17968099695400270086
15927050 60 18195527000187723919
1813 80 18055927733926317607
19301676 85 17476935553975372222
19301679 30 18267311000329436579
19311894 1 18410577253716989648
21033648 29 11886861469664354506
21033650 10 14924763684696375686
21133410 90 17130720560390912507
21639891 77 18272087214362927472
21703447 108 18193827357475279824
22223350 30 18412537713151489344
22311459 1 18265896861310222296
23536364 44 18265314240385013007
23559900 14 18343293748690703840
23576562 1 18113625598789766956
244849 19 17130684202458861018
25269216 80 18190202186382536982
283562 15 18337673139110753635
3383291 50 18201434766621432327
4058900 60 17975980856708471429
4073 2 18201716220587302338
5080951 261 18268690784769543046
513202 73 18338243755433384403
5171179 24 18128250284375462169
59025328 239 17195976660618204359
6669772 16 18123753050010995647
6691757 9 18272091530752279504
6698420 124 17914064096329223384
70251023 43 18123189271223435147

> <PUBCHEM_SHAPE_MULTIPOLES>
754.68
15.47
6.08
1.8
36.61
1.64
-0.05
5.2
-1.55
-13.11
0.02
-0.95
-0.29
-0.95

> <PUBCHEM_SHAPE_SELFOVERLAP>
1648.601

> <PUBCHEM_SHAPE_VOLUME>
411.7

> <PUBCHEM_COORDINATE_TYPE>
2
5
10

$$$$
146234893
  -OEChem-05102415023D

 69 73  0     1  0  0  0  0  0999 V2000
    0.1282   -3.8641    0.0112 Cl  0  0  0  0  0  0  0  0  0  0  0  0
   -2.7755   -2.5199    2.2719 F   0  0  0  0  0  0  0  0  0  0  0  0
    7.3861   -0.8786   -1.1346 O   0  0  0  0  0  0  0  0  0  0  0  0
   -0.1849    4.0837   -0.1286 O   0  0  0  0  0  0  0  0  0  0  0  0
   -2.6524   -2.6055   -2.5077 O   0  0  0  0  0  0  0  0  0  0  0  0
    2.9055    0.7578   -0.0541 N   0  0  0  0  0  0  0  0  0  0  0  0
    5.3492   -0.6742   -0.0300 N   0  0  0  0  0  0  0  0  0  0  0  0
   -1.0478    1.9359   -0.0901 N   0  0  0  0  0  0  0  0  0  0  0  0
    1.3077    2.4014   -0.1316 N   0  0  0  0  0  0  0  0  0  0  0  0
   -1.8088   -0.3670   -0.0974 N   0  0  0  0  0  0  0  0  0  0  0  0
    3.6876    0.6749   -1.2951 C   0  0  2  0  0  0  0  0  0  0  0  0
    4.5866   -0.5645   -1.2729 C   0  0  0  0  0  0  0  0  0  0  0  0
    3.6274    0.6000    1.2089 C   0  0  0  0  0  0  0  0  0  0  0  0
    4.5319   -0.6294    1.1869 C   0  0  0  0  0  0  0  0  0  0  0  0
    1.6036    1.1347   -0.0711 C   0  0  0  0  0  0  0  0  0  0  0  0
    4.4859    1.9616   -1.5065 C   0  0  0  0  0  0  0  0  0  0  0  0
    0.5368    0.1087   -0.0301 C   0  0  0  0  0  0  0  0  0  0  0  0
    6.7297   -0.8457   -0.0922 C   0  0  0  0  0  0  0  0  0  0  0  0
   -0.7886    0.5304   -0.0533 C   0  0  0  0  0  0  0  0  0  0  0  0
    0.0113    2.8663   -0.1325 C   0  0  0  0  0  0  0  0  0  0  0  0
    0.8143   -1.2623   -0.0065 C   0  0  0  0  0  0  0  0  0  0  0  0
   -2.4144    2.3785   -0.0953 C   0  0  0  0  0  0  0  0  0  0  0  0
   -3.0714    2.6275    1.1098 C   0  0  0  0  0  0  0  0  0  0  0  0
    7.4619   -1.0033    1.1802 C   0  0  0  0  0  0  0  0  0  0  0  0
   -0.2274   -2.1791   -0.0232 C   0  0  0  0  0  0  0  0  0  0  0  0
   -1.5126   -1.6843   -0.0736 C   0  0  0  0  0  0  0  0  0  0  0  0
   -3.0840    2.5607   -1.3051 C   0  0  0  0  0  0  0  0  0  0  0  0
   -2.3808    2.4428    2.4224 C   0  0  0  0  0  0  0  0  0  0  0  0
   -4.3978    3.0586    1.1049 C   0  0  0  0  0  0  0  0  0  0  0  0
   -2.6807   -2.5372   -0.1048 C   0  0  0  0  0  0  0  0  0  0  0  0
   -4.4105    2.9920   -1.3101 C   0  0  0  0  0  0  0  0  0  0  0  0
   -2.4072    2.3015   -2.6123 C   0  0  0  0  0  0  0  0  0  0  0  0
   -5.0675    3.2409   -0.1051 C   0  0  0  0  0  0  0  0  0  0  0  0
    8.7245   -0.5773    1.2547 C   0  0  0  0  0  0  0  0  0  0  0  0
   -2.8035    1.1545    3.1213 C   0  0  0  0  0  0  0  0  0  0  0  0
   -3.2130   -2.9699   -1.3192 C   0  0  0  0  0  0  0  0  0  0  0  0
   -3.2748   -2.9268    1.0956 C   0  0  0  0  0  0  0  0  0  0  0  0
   -4.3396   -3.7923   -1.3333 C   0  0  0  0  0  0  0  0  0  0  0  0
   -4.4014   -3.7493    1.0814 C   0  0  0  0  0  0  0  0  0  0  0  0
   -4.9338   -4.1819   -0.1331 C   0  0  0  0  0  0  0  0  0  0  0  0
    3.0029    0.5690   -2.1471 H   0  0  0  0  0  0  0  0  0  0  0  0
    3.9709   -1.4705   -1.3373 H   0  0  0  0  0  0  0  0  0  0  0  0
    5.2489   -0.5704   -2.1451 H   0  0  0  0  0  0  0  0  0  0  0  0
    2.9262    0.5135    2.0477 H   0  0  0  0  0  0  0  0  0  0  0  0
    4.2268    1.5003    1.3886 H   0  0  0  0  0  0  0  0  0  0  0  0
    5.1380   -0.6289    2.0936 H   0  0  0  0  0  0  0  0  0  0  0  0
    3.9317   -1.5464    1.1972 H   0  0  0  0  0  0  0  0  0  0  0  0
    5.2147    2.1304   -0.7070 H   0  0  0  0  0  0  0  0  0  0  0  0
    3.8234    2.8330   -1.5380 H   0  0  0  0  0  0  0  0  0  0  0  0
    5.0331    1.9231   -2.4544 H   0  0  0  0  0  0  0  0  0  0  0  0
    1.8381   -1.6221    0.0118 H   0  0  0  0  0  0  0  0  0  0  0  0
    7.0032   -1.4973    2.0262 H   0  0  0  0  0  0  0  0  0  0  0  0
   -2.6225    3.2948    3.0717 H   0  0  0  0  0  0  0  0  0  0  0  0
   -1.2903    2.4637    2.3333 H   0  0  0  0  0  0  0  0  0  0  0  0
   -4.9221    3.2576    2.0360 H   0  0  0  0  0  0  0  0  0  0  0  0
   -4.9477    3.1386   -2.2433 H   0  0  0  0  0  0  0  0  0  0  0  0
   -1.5063    2.9153   -2.7119 H   0  0  0  0  0  0  0  0  0  0  0  0
   -3.0561    2.5472   -3.4603 H   0  0  0  0  0  0  0  0  0  0  0  0
   -2.1397    1.2441   -2.7054 H   0  0  0  0  0  0  0  0  0  0  0  0
   -6.1003    3.5767   -0.1088 H   0  0  0  0  0  0  0  0  0  0  0  0
    9.2855   -0.7065    2.1745 H   0  0  0  0  0  0  0  0  0  0  0  0
    9.2311   -0.0893    0.4292 H   0  0  0  0  0  0  0  0  0  0  0  0
   -2.5591    0.2734    2.5216 H   0  0  0  0  0  0  0  0  0  0  0  0
   -3.8808    1.1383    3.3172 H   0  0  0  0  0  0  0  0  0  0  0  0
   -2.2867    1.0620    4.0820 H   0  0  0  0  0  0  0  0  0  0  0  0
   -4.7655   -4.1375   -2.2716 H   0  0  0  0  0  0  0  0  0  0  0  0
   -4.8638   -4.0525    2.0161 H   0  0  0  0  0  0  0  0  0  0  0  0
   -5.8109   -4.8222   -0.1439 H   0  0  0  0  0  0  0  0  0  0  0  0
   -3.1609   -3.0025   -3.2354 H   0  0  0  0  0  0  0  0  0  0  0  0
  1 25  1  0  0  0  0
  2 37  1  0  0  0  0
  3 18  2  0  0  0  0
  4 20  2  0  0  0  0
  5 36  1  0  0  0  0
  5 69  1  0  0  0  0
  6 11  1  0  0  0  0
  6 13  1  0  0  0  0
  6 15  1  0  0  0  0
  7 12  1  0  0  0  0
  7 14  1  0  0  0  0
  7 18  1  0  0  0  0
  8 19  1  0  0  0  0
  8 20  1  0  0  0  0
  8 22  1  0  0  0  0
  9 15  2  0  0  0  0
  9 20  1  0  0  0  0
 10 19  2  0  0  0  0
 10 26  1  0  0  0  0
 11 12  1  0  0  0  0
 11 16  1  0  0  0  0
 11 41  1  0  0  0  0
 12 42  1  0  0  0  0
 12 43  1  0  0  0  0
 13 14  1  0  0  0  0
 13 44  1  0  0  0  0
 13 45  1  0  0  0  0
 14 46  1  0  0  0  0
 14 47  1  0  0  0  0
 15 17  1  0  0  0  0
 16 48  1  0  0  0  0
 16 49  1  0  0  0  0
 16 50  1  0  0  0  0
 17 19  1  0  0  0  0
 17 21  2  0  0  0  0
 18 24  1  0  0  0  0
 21 25  1  0  0  0  0
 21 51  1  0  0  0  0
 22 23  1  0  0  0  0
 22 27  2  0  0  0  0
 23 28  1  0  0  0  0
 23 29  2  0  0  0  0
 24 34  2  0  0  0  0
 24 52  1  0  0  0  0
 25 26  2  0  0  0  0
 26 30  1  0  0  0  0
 27 31  1  0  0  0  0
 27 32  1  0  0  0  0
 28 35  1  0  0  0  0
 28 53  1  0  0  0  0
 28 54  1  0  0  0  0
 29 33  1  0  0  0  0
 29 55  1  0  0  0  0
 30 36  2  0  0  0  0
 30 37  1  0  0  0  0
 31 33  2  0  0  0  0
 31 56  1  0  0  0  0
 32 57  1  0  0  0  0
 32 58  1  0  0  0  0
 32 59  1  0  0  0  0
 33 60  1  0  0  0  0
 34 61  1  0  0  0  0
 34 62  1  0  0  0  0
 35 63  1  0  0  0  0
 35 64  1  0  0  0  0
 35 65  1  0  0  0  0
 36 38  1  0  0  0  0
 37 39  2  0  0  0  0
 38 40  2  0  0  0  0
 38 66  1  0  0  0  0
 39 40  1  0  0  0  0
 39 67  1  0  0  0  0
 40 68  1  0  0  0  0
M  END
> <PUBCHEM_COMPOUND_CID>
146234893

> <PUBCHEM_CONFORMER_RMSD>
1

> <PUBCHEM_CONFORMER_DIVERSEORDER>
1
11
38
14
27
24
30
31
12
13
36
20
37
25
23
17
33
34
29
21
26
19
39
15
10
35
18
16
2
7
28
32
9
8
6
22
3
4
5

> <PUBCHEM_MMFF94_PARTIAL_CHARGES>
48
1 -0.18
10 -0.62
11 0.37
12 0.3
13 0.37
14 0.3
15 0.41
17 0.09
18 0.62
19 0.43
2 -0.19
20 0.84
21 -0.15
22 0.12
23 -0.14
24 -0.14
25 0.18
26 0.31
27 -0.14
28 0.14
29 -0.15
3 -0.57
31 -0.15
32 0.14
33 -0.15
34 -0.3
36 0.08
37 0.19
38 -0.15
39 -0.15
4 -0.57
40 -0.15
5 -0.53
51 0.15
52 0.15
55 0.15
56 0.15
6 -0.79
60 0.15
61 0.15
62 0.15
66 0.15
67 0.15
68 0.15
69 0.45
7 -0.66
8 -0.29
9 -0.66

> <PUBCHEM_EFFECTIVE_ROTOR_COUNT>
7.2

> <PUBCHEM_PHARMACOPHORE_FEATURES>
11
1 3 acceptor
1 34 hydrophobe
1 35 hydrophobe
1 4 acceptor
1 5 donor
1 9 donor
6 10 17 19 21 25 26 rings
6 22 23 27 29 31 33 rings
6 30 36 37 38 39 40 rings
6 6 7 11 12 13 14 rings
6 8 9 15 17 19 20 rings

> <PUBCHEM_HEAVY_ATOM_COUNT>
40

> <PUBCHEM_ATOM_DEF_STEREO_COUNT>
1

> <PUBCHEM_ATOM_UDEF_STEREO_COUNT>
0

> <PUBCHEM_BOND_DEF_STEREO_COUNT>
0

> <PUBCHEM_BOND_UDEF_STEREO_COUNT>
0

> <PUBCHEM_ISOTOPIC_ATOM_COUNT>
0

> <PUBCHEM_COMPONENT_COUNT>
1

> <PUBCHEM_CACTVS_TAUTO_COUNT>
-1

> <PUBCHEM_CONFORMER_ID>
08B75E0D00000001

> <PUBCHEM_MMFF94_ENERGY>
150.5217

> <PUBCHEM_FEATURE_SELFOVERLAP>
55.85

> <PUBCHEM_SHAPE_FINGERPRINT>
10050765 1 18337672026988972236
10119406 146 18125724474802852718
10411042 1 18265893747063092463
11991303 11 18261391110046064357
12156800 1 18050247554278795649
12422481 6 17915767412225051475
12522641 33 18117558436709351613
12633046 712 17488766501121430652
12788726 201 18267307723237189054
13140716 1 18411702093052019800
13540713 5 18262531398035865244
13583140 156 17095815304334864376
13692114 37 18201720622860436513
13692115 27 18339929341007395934
13782708 43 17989487442528086214
13911987 19 18045768006168401021
140371 6 17831018288395367964
14068700 675 18270676605479691359
14118638 360 18262803007904856380
14279260 333 18338502067493323270
14347332 77 18338800125755059678
14674994 50 18060133263371523677
14866123 147 18409451388544224107
15021287 119 17240207612627768228
15131766 46 16011323130211626932
15264996 74 18271514334745608847
15276724 80 18194691585871898636
15439362 3 17907292152953341118
15484559 13 18051959335064879013
1577012 14 17967535650246006110
15927050 60 18267302019710959231
1813 80 18055363688724606855
19301676 85 17548709478387435502
19301679 30 18338804544786329275
19311894 1 18410296882641787180
21033650 10 15069160352049184270
21639891 77 18343862238228576728
21703447 108 18193545886782980416
22223350 30 18412255143016127408
22311459 1 18265613187347159948
23576562 1 18041003955307856508
244849 19 17130684206801359498
25269216 80 18189920715727173910
283562 15 18337954614040030427
3383291 50 18273491261100298775
3504750 166 18344147007778031854
4073 2 18201433650415049650
484985 159 18333168379757862579
5080951 261 18343575244218604198
508180 173 17982700221758718239
513202 73 18337680809743288383
5171179 24 18127686239178987041
6376802 137 17346310519141964449
6669772 16 18122626050566209895
6691757 9 18272090435588333992
6698420 124 17914063001149486136
70251023 43 18122344850530202707

> <PUBCHEM_SHAPE_MULTIPOLES>
775.26
15.28
5.97
2.04
38.36
2.42
-0.46
4.63
-1.75
-12.6
0.52
-1.48
-0.53
-0.98

> <PUBCHEM_SHAPE_SELFOVERLAP>
1687.911

> <PUBCHEM_SHAPE_VOLUME>
424.5

> <PUBCHEM_COORDINATE_TYPE>
2
5
10

$$$$
146235304
  -OEChem-05102415023D

 69 73  0     1  0  0  0  0  0999 V2000
    0.2480    3.9540    0.3189 Cl  0  0  0  0  0  0  0  0  0  0  0  0
   -2.9300    2.6317    2.1722 F   0  0  0  0  0  0  0  0  0  0  0  0
    7.2245    0.4491    1.4278 O   0  0  0  0  0  0  0  0  0  0  0  0
   -0.3692   -3.9010   -1.0002 O   0  0  0  0  0  0  0  0  0  0  0  0
    2.7850   -0.7261   -0.2545 N   0  0  0  0  0  0  0  0  0  0  0  0
    5.2587    0.5796    0.1912 N   0  0  0  0  0  0  0  0  0  0  0  0
   -1.1897   -1.7646   -0.6575 N   0  0  0  0  0  0  0  0  0  0  0  0
    1.1553   -2.2806   -0.6680 N   0  0  0  0  0  0  0  0  0  0  0  0
    3.4874   -0.9582    1.0150 C   0  0  2  0  0  0  0  0  0  0  0  0
    4.4153    0.2185    1.3299 C   0  0  0  0  0  0  0  0  0  0  0  0
    3.5903   -0.3121   -1.4038 C   0  0  0  0  0  0  0  0  0  0  0  0
    4.5205    0.8447   -1.0480 C   0  0  0  0  0  0  0  0  0  0  0  0
    1.4760   -1.0472   -0.3991 C   0  0  0  0  0  0  0  0  0  0  0  0
    4.2395   -2.2886    0.9700 C   0  0  0  0  0  0  0  0  0  0  0  0
    0.4339    0.0011   -0.2642 C   0  0  0  0  0  0  0  0  0  0  0  0
   -0.9030   -0.3839   -0.4263 C   0  0  0  0  0  0  0  0  0  0  0  0
    6.6360    0.6800    0.3700 C   0  0  0  0  0  0  0  0  0  0  0  0
    0.7687    1.3433   -0.0274 C   0  0  0  0  0  0  0  0  0  0  0  0
   -2.5489   -2.2125   -0.7036 C   0  0  0  0  0  0  0  0  0  0  0  0
   -0.1472   -2.7041   -0.8013 C   0  0  0  0  0  0  0  0  0  0  0  0
   -1.8853    0.6238   -0.4170 C   0  0  0  0  0  0  0  0  0  0  0  0
   -3.2010   -2.6397    0.4531 C   0  0  0  0  0  0  0  0  0  0  0  0
   -1.5505    1.9596   -0.1842 C   0  0  0  0  0  0  0  0  0  0  0  0
   -2.5060   -2.6437    1.7759 C   0  0  0  0  0  0  0  0  0  0  0  0
   -0.2255    2.3170    0.0218 C   0  0  0  0  0  0  0  0  0  0  0  0
    7.4522    1.0957   -0.7881 C   0  0  0  0  0  0  0  0  0  0  0  0
   -3.2211   -2.2185   -1.9258 C   0  0  0  0  0  0  0  0  0  0  0  0
   -4.5254   -3.0726    0.3876 C   0  0  0  0  0  0  0  0  0  0  0  0
   -2.6199    2.9404   -0.1657 C   0  0  0  0  0  0  0  0  0  0  0  0
   -2.3853   -4.0586    2.3700 C   0  0  0  0  0  0  0  0  0  0  0  0
   -3.1762   -1.7023    2.7930 C   0  0  0  0  0  0  0  0  0  0  0  0
   -4.5455   -2.6514   -1.9913 C   0  0  0  0  0  0  0  0  0  0  0  0
   -5.1976   -3.0785   -0.8346 C   0  0  0  0  0  0  0  0  0  0  0  0
    8.7064    0.6501   -0.8862 C   0  0  0  0  0  0  0  0  0  0  0  0
   -3.2751    3.2411    1.0285 C   0  0  0  0  0  0  0  0  0  0  0  0
   -2.9933    3.5819   -1.3466 C   0  0  0  0  0  0  0  0  0  0  0  0
   -4.3035    4.1834    1.0417 C   0  0  0  0  0  0  0  0  0  0  0  0
   -4.0217    4.5242   -1.3336 C   0  0  0  0  0  0  0  0  0  0  0  0
   -4.6768    4.8249   -0.1394 C   0  0  0  0  0  0  0  0  0  0  0  0
    2.7519   -1.0235    1.8278 H   0  0  0  0  0  0  0  0  0  0  0  0
    3.8183    1.1086    1.5654 H   0  0  0  0  0  0  0  0  0  0  0  0
    5.0199    0.0003    2.2165 H   0  0  0  0  0  0  0  0  0  0  0  0
    2.9471   -0.0102   -2.2393 H   0  0  0  0  0  0  0  0  0  0  0  0
    4.1785   -1.1697   -1.7510 H   0  0  0  0  0  0  0  0  0  0  0  0
    5.1840    1.0268   -1.8943 H   0  0  0  0  0  0  0  0  0  0  0  0
    3.9461    1.7632   -0.8826 H   0  0  0  0  0  0  0  0  0  0  0  0
    5.0139   -2.2982    0.1961 H   0  0  0  0  0  0  0  0  0  0  0  0
    3.5555   -3.1183    0.7624 H   0  0  0  0  0  0  0  0  0  0  0  0
    4.7253   -2.4881    1.9310 H   0  0  0  0  0  0  0  0  0  0  0  0
    1.8032    1.6387    0.1158 H   0  0  0  0  0  0  0  0  0  0  0  0
   -2.9322    0.3708   -0.5726 H   0  0  0  0  0  0  0  0  0  0  0  0
   -1.4772   -2.2822    1.6806 H   0  0  0  0  0  0  0  0  0  0  0  0
    7.0608    1.7867   -1.5226 H   0  0  0  0  0  0  0  0  0  0  0  0
   -2.7234   -1.8886   -2.8342 H   0  0  0  0  0  0  0  0  0  0  0  0
   -5.0555   -3.4099    1.2739 H   0  0  0  0  0  0  0  0  0  0  0  0
   -3.3630   -4.4876    2.6141 H   0  0  0  0  0  0  0  0  0  0  0  0
   -1.8877   -4.7350    1.6661 H   0  0  0  0  0  0  0  0  0  0  0  0
   -1.7931   -4.0386    3.2914 H   0  0  0  0  0  0  0  0  0  0  0  0
   -4.1872   -2.0319    3.0551 H   0  0  0  0  0  0  0  0  0  0  0  0
   -2.5916   -1.6588    3.7185 H   0  0  0  0  0  0  0  0  0  0  0  0
   -3.2476   -0.6844    2.3937 H   0  0  0  0  0  0  0  0  0  0  0  0
   -5.0689   -2.6559   -2.9429 H   0  0  0  0  0  0  0  0  0  0  0  0
   -6.2288   -3.4154   -0.8859 H   0  0  0  0  0  0  0  0  0  0  0  0
    9.3285    0.9643   -1.7181 H   0  0  0  0  0  0  0  0  0  0  0  0
    9.1470   -0.0322   -0.1675 H   0  0  0  0  0  0  0  0  0  0  0  0
   -2.4931    3.3591   -2.2863 H   0  0  0  0  0  0  0  0  0  0  0  0
   -4.8137    4.4171    1.9714 H   0  0  0  0  0  0  0  0  0  0  0  0
   -4.3124    5.0237   -2.2531 H   0  0  0  0  0  0  0  0  0  0  0  0
   -5.4776    5.5585   -0.1292 H   0  0  0  0  0  0  0  0  0  0  0  0
  1 25  1  0  0  0  0
  2 35  1  0  0  0  0
  3 17  2  0  0  0  0
  4 20  2  0  0  0  0
  5  9  1  0  0  0  0
  5 11  1  0  0  0  0
  5 13  1  0  0  0  0
  6 10  1  0  0  0  0
  6 12  1  0  0  0  0
  6 17  1  0  0  0  0
  7 16  1  0  0  0  0
  7 19  1  0  0  0  0
  7 20  1  0  0  0  0
  8 13  2  0  0  0  0
  8 20  1  0  0  0  0
  9 10  1  0  0  0  0
  9 14  1  0  0  0  0
  9 40  1  0  0  0  0
 10 41  1  0  0  0  0
 10 42  1  0  0  0  0
 11 12  1  0  0  0  0
 11 43  1  0  0  0  0
 11 44  1  0  0  0  0
 12 45  1  0  0  0  0
 12 46  1  0  0  0  0
 13 15  1  0  0  0  0
 14 47  1  0  0  0  0
 14 48  1  0  0  0  0
 14 49  1  0  0  0  0
 15 16  1  0  0  0  0
 15 18  2  0  0  0  0
 16 21  2  0  0  0  0
 17 26  1  0  0  0  0
 18 25  1  0  0  0  0
 18 50  1  0  0  0  0
 19 22  1  0  0  0  0
 19 27  2  0  0  0  0
 21 23  1  0  0  0  0
 21 51  1  0  0  0  0
 22 24  1  0  0  0  0
 22 28  2  0  0  0  0
 23 25  2  0  0  0  0
 23 29  1  0  0  0  0
 24 30  1  0  0  0  0
 24 31  1  0  0  0  0
 24 52  1  0  0  0  0
 26 34  2  0  0  0  0
 26 53  1  0  0  0  0
 27 32  1  0  0  0  0
 27 54  1  0  0  0  0
 28 33  1  0  0  0  0
 28 55  1  0  0  0  0
 29 35  1  0  0  0  0
 29 36  2  0  0  0  0
 30 56  1  0  0  0  0
 30 57  1  0  0  0  0
 30 58  1  0  0  0  0
 31 59  1  0  0  0  0
 31 60  1  0  0  0  0
 31 61  1  0  0  0  0
 32 33  2  0  0  0  0
 32 62  1  0  0  0  0
 33 63  1  0  0  0  0
 34 64  1  0  0  0  0
 34 65  1  0  0  0  0
 35 37  2  0  0  0  0
 36 38  1  0  0  0  0
 36 66  1  0  0  0  0
 37 39  1  0  0  0  0
 37 67  1  0  0  0  0
 38 39  2  0  0  0  0
 38 68  1  0  0  0  0
 39 69  1  0  0  0  0
M  END
> <PUBCHEM_COMPOUND_CID>
146235304

> <PUBCHEM_CONFORMER_RMSD>
1

> <PUBCHEM_CONFORMER_DIVERSEORDER>
1
38
34
7
37
21
19
36
32
4
26
17
11
31
30
15
29
22
16
13
40
27
25
28
39
35
33
10
9
23
5
14
8
12
24
18
20
2
6
3

> <PUBCHEM_MMFF94_PARTIAL_CHARGES>
47
1 -0.18
10 0.3
11 0.37
12 0.3
13 0.41
15 0.09
16 0.12
17 0.62
18 -0.15
19 0.12
2 -0.19
20 0.84
21 -0.15
22 -0.14
24 0.14
25 0.18
26 -0.14
27 -0.15
28 -0.15
3 -0.57
32 -0.15
33 -0.15
34 -0.3
35 0.19
36 -0.15
37 -0.15
38 -0.15
39 -0.15
4 -0.57
5 -0.79
50 0.15
51 0.15
53 0.15
54 0.15
55 0.15
6 -0.66
62 0.15
63 0.15
64 0.15
65 0.15
66 0.15
67 0.15
68 0.15
69 0.15
7 -0.29
8 -0.66
9 0.37

> <PUBCHEM_EFFECTIVE_ROTOR_COUNT>
7.2

> <PUBCHEM_PHARMACOPHORE_FEATURES>
10
1 3 acceptor
1 34 hydrophobe
1 4 acceptor
1 8 donor
3 24 30 31 hydrophobe
6 15 16 18 21 23 25 rings
6 19 22 27 28 32 33 rings
6 29 35 36 37 38 39 rings
6 5 6 9 10 11 12 rings
6 7 8 13 15 16 20 rings

> <PUBCHEM_HEAVY_ATOM_COUNT>
39

> <PUBCHEM_ATOM_DEF_STEREO_COUNT>
1

> <PUBCHEM_ATOM_UDEF_STEREO_COUNT>
0

> <PUBCHEM_BOND_DEF_STEREO_COUNT>
0

> <PUBCHEM_BOND_UDEF_STEREO_COUNT>
0

> <PUBCHEM_ISOTOPIC_ATOM_COUNT>
0

> <PUBCHEM_COMPONENT_COUNT>
1

> <PUBCHEM_CACTVS_TAUTO_COUNT>
-1

> <PUBCHEM_CONFORMER_ID>
08B75FA800000001

> <PUBCHEM_MMFF94_ENERGY>
154.8309

> <PUBCHEM_FEATURE_SELFOVERLAP>
50.771

> <PUBCHEM_SHAPE_FINGERPRINT>
10050765 1 18339923706670018094
10074138 170 18260821575190541961
10930396 42 17909799331823316058
11007060 377 18337669711632022729
11062273 19 17690561209490114119
11135609 187 18196641896721151005
11578080 2 17774172197014373931
11991303 11 18264488386835517741
12156800 1 17980440587549742499
12160290 23 18268171802454495805
12293681 4 18261675978005240627
12440605 4 18340487751407641883
12539745 222 16805612524972040315
12741549 16 17968938742751916191
12788726 201 18335968852953600171
13140716 1 18267585693784784894
13540713 4 18128832871478601694
13540713 5 18263348219232206570
13782708 43 17775293777075641310
13911987 19 18196082253328207740
14028597 1 17822004312067272219
140371 6 18262521510377363559
14068700 675 18196080256119734277
14118638 360 18335133216417969050
14294032 229 18412548691071806844
14856354 85 18267307724007978694
15297060 5 18201440221372524224
15324884 4 17613189294183497849
15338160 23 18409171012905067712
15439362 3 17908705034022274620
16114785 44 18337117783007593747
16993438 75 18411417293690909689
18603816 31 13335275633967650440
19319366 153 17765419960420287789
21049683 118 18050260610657829841
21927370 108 18264499553908970091
22311459 1 18269270330540607614
23929065 36 18270943739549999280
249057 25 17895193342520123708
2747138 104 18266458905130539602
283562 15 18412538830022236599
3552219 110 17896611771836834348
376196 1 17908702830919965581
4058900 60 17979641134890402632
4258327 124 18260833670003596252
4403749 210 18336830767708382353
469060 322 18341622554464690779
5171179 24 17915447505364025057
57527295 17 18044345393242236239
5912855 24 18336262349865363338
5969126 39 18270958054559699239
6086070 43 17346586449399759194
6677587 24 16018827026520225709
9896288 288 18335143107268930618

> <PUBCHEM_SHAPE_MULTIPOLES>
765.54
15.13
6.81
1.87
37.81
4.66
0.72
3.62
-0.88
-14.91
0.44
-1.63
-1.18
-0.6

> <PUBCHEM_SHAPE_SELFOVERLAP>
1662.715

> <PUBCHEM_SHAPE_VOLUME>
419.7

> <PUBCHEM_COORDINATE_TYPE>
2
5
10

$$$$
137278705
  -OEChem-05102415023D

 72 76  0     1  0  0  0  0  0999 V2000
    0.2917    3.9282   -0.3343 Cl  0  0  0  0  0  0  0  0  0  0  0  0
   -2.4081    3.0559    2.3833 F   0  0  0  0  0  0  0  0  0  0  0  0
    7.5102    0.6818    0.9632 O   0  0  0  0  0  0  0  0  0  0  0  0
   -0.2681   -3.9171    0.8581 O   0  0  0  0  0  0  0  0  0  0  0  0
   -2.7665    2.4468   -2.3464 O   0  0  0  0  0  0  0  0  0  0  0  0
    2.9219   -0.7413    0.2637 N   0  0  0  0  0  0  0  0  0  0  0  0
    5.4102    0.5546   -0.0232 N   0  0  0  0  0  0  0  0  0  0  0  0
   -1.0632   -1.7638    0.5583 N   0  0  0  0  0  0  0  0  0  0  0  0
    1.2766   -2.3029    0.5999 N   0  0  0  0  0  0  0  0  0  0  0  0
   -1.7505    0.5453    0.2809 N   0  0  0  0  0  0  0  0  0  0  0  0
    3.7470   -0.5190    1.4633 C   0  0  2  0  0  0  0  0  0  0  0  0
    4.6973    0.6678    1.2492 C   0  0  0  0  0  0  0  0  0  0  0  0
    3.6132   -0.7756   -1.0298 C   0  0  0  0  0  0  0  0  0  0  0  0
    4.5176    0.4422   -1.1813 C   0  0  0  0  0  0  0  0  0  0  0  0
    1.6102   -1.0662    0.3649 C   0  0  0  0  0  0  0  0  0  0  0  0
    4.4989   -1.7989    1.8320 C   0  0  0  0  0  0  0  0  0  0  0  0
    0.5759   -0.0173    0.2168 C   0  0  0  0  0  0  0  0  0  0  0  0
   -2.5221   -2.5556   -1.8260 C   0  0  0  0  0  0  0  0  0  0  0  0
   -0.7609   -0.3855    0.3295 C   0  0  0  0  0  0  0  0  0  0  0  0
   -3.1605   -2.5369   -0.4750 C   0  0  0  0  0  0  0  0  0  0  0  0
    6.8002    0.5860   -0.0392 C   0  0  0  0  0  0  0  0  0  0  0  0
   -2.4422   -2.1533    0.6575 C   0  0  0  0  0  0  0  0  0  0  0  0
   -0.0333   -2.7176    0.6961 C   0  0  0  0  0  0  0  0  0  0  0  0
    0.8958    1.3281    0.0059 C   0  0  0  0  0  0  0  0  0  0  0  0
   -3.5324   -3.0191   -2.9192 C   0  0  0  0  0  0  0  0  0  0  0  0
   -1.9687   -1.1804   -2.3230 C   0  0  0  0  0  0  0  0  0  0  0  0
   -1.3069   -3.5319   -1.8610 C   0  0  0  0  0  0  0  0  0  0  0  0
   -4.4990   -2.9120   -0.3580 C   0  0  0  0  0  0  0  0  0  0  0  0
   -3.0623   -2.1448    1.9070 C   0  0  0  0  0  0  0  0  0  0  0  0
   -0.1156    2.2754   -0.0716 C   0  0  0  0  0  0  0  0  0  0  0  0
   -1.4137    1.8369    0.0764 C   0  0  0  0  0  0  0  0  0  0  0  0
    7.4748    0.4925   -1.3488 C   0  0  0  0  0  0  0  0  0  0  0  0
   -5.1191   -2.9032    0.8914 C   0  0  0  0  0  0  0  0  0  0  0  0
   -4.4008   -2.5198    2.0240 C   0  0  0  0  0  0  0  0  0  0  0  0
   -2.5525    2.7280    0.0315 C   0  0  0  0  0  0  0  0  0  0  0  0
    8.6556    1.0934   -1.5097 C   0  0  0  0  0  0  0  0  0  0  0  0
   -3.1928    3.0035   -1.1768 C   0  0  0  0  0  0  0  0  0  0  0  0
   -3.0102    3.3123    1.2125 C   0  0  0  0  0  0  0  0  0  0  0  0
   -4.2908    3.8634   -1.2041 C   0  0  0  0  0  0  0  0  0  0  0  0
   -4.1082    4.1723    1.1852 C   0  0  0  0  0  0  0  0  0  0  0  0
   -4.7487    4.4475   -0.0231 C   0  0  0  0  0  0  0  0  0  0  0  0
    3.0928   -0.2665    2.3084 H   0  0  0  0  0  0  0  0  0  0  0  0
    5.3957    0.7557    2.0880 H   0  0  0  0  0  0  0  0  0  0  0  0
    4.1258    1.6034    1.2089 H   0  0  0  0  0  0  0  0  0  0  0  0
    2.8885   -0.7903   -1.8526 H   0  0  0  0  0  0  0  0  0  0  0  0
    4.2002   -1.6986   -1.1009 H   0  0  0  0  0  0  0  0  0  0  0  0
    5.0605    0.3829   -2.1248 H   0  0  0  0  0  0  0  0  0  0  0  0
    3.9257    1.3638   -1.2204 H   0  0  0  0  0  0  0  0  0  0  0  0
    5.1915   -2.1115    1.0439 H   0  0  0  0  0  0  0  0  0  0  0  0
    3.8023   -2.6259    2.0054 H   0  0  0  0  0  0  0  0  0  0  0  0
    5.0795   -1.6529    2.7490 H   0  0  0  0  0  0  0  0  0  0  0  0
   -4.3819   -2.3322   -3.0161 H   0  0  0  0  0  0  0  0  0  0  0  0
   -3.8970   -4.0381   -2.7408 H   0  0  0  0  0  0  0  0  0  0  0  0
   -3.0520   -3.0472   -3.9061 H   0  0  0  0  0  0  0  0  0  0  0  0
   -2.6378   -0.3628   -2.0394 H   0  0  0  0  0  0  0  0  0  0  0  0
   -0.9495   -0.9670   -2.0078 H   0  0  0  0  0  0  0  0  0  0  0  0
   -1.9104   -1.1652   -3.4194 H   0  0  0  0  0  0  0  0  0  0  0  0
   -1.4798   -4.4219   -1.2476 H   0  0  0  0  0  0  0  0  0  0  0  0
   -0.3509   -3.0697   -1.6202 H   0  0  0  0  0  0  0  0  0  0  0  0
   -1.1597   -3.9012   -2.8852 H   0  0  0  0  0  0  0  0  0  0  0  0
    1.9287    1.6475   -0.0816 H   0  0  0  0  0  0  0  0  0  0  0  0
   -5.1285   -3.2205   -1.1834 H   0  0  0  0  0  0  0  0  0  0  0  0
   -2.5127   -1.8480    2.7967 H   0  0  0  0  0  0  0  0  0  0  0  0
    7.0483   -0.0904   -2.1537 H   0  0  0  0  0  0  0  0  0  0  0  0
   -6.1615   -3.1944    0.9840 H   0  0  0  0  0  0  0  0  0  0  0  0
   -4.8837   -2.5129    2.9968 H   0  0  0  0  0  0  0  0  0  0  0  0
    9.1308    1.6768   -0.7287 H   0  0  0  0  0  0  0  0  0  0  0  0
    9.1774    1.0154   -2.4580 H   0  0  0  0  0  0  0  0  0  0  0  0
   -4.7997    4.0876   -2.1378 H   0  0  0  0  0  0  0  0  0  0  0  0
   -4.4648    4.6267    2.1048 H   0  0  0  0  0  0  0  0  0  0  0  0
   -5.6037    5.1169   -0.0441 H   0  0  0  0  0  0  0  0  0  0  0  0
   -3.3361    2.7541   -3.0724 H   0  0  0  0  0  0  0  0  0  0  0  0
  1 30  1  0  0  0  0
  2 38  1  0  0  0  0
  3 21  2  0  0  0  0
  4 23  2  0  0  0  0
  5 37  1  0  0  0  0
  5 72  1  0  0  0  0
  6 11  1  0  0  0  0
  6 13  1  0  0  0  0
  6 15  1  0  0  0  0
  7 12  1  0  0  0  0
  7 14  1  0  0  0  0
  7 21  1  0  0  0  0
  8 19  1  0  0  0  0
  8 22  1  0  0  0  0
  8 23  1  0  0  0  0
  9 15  2  0  0  0  0
  9 23  1  0  0  0  0
 10 19  2  0  0  0  0
 10 31  1  0  0  0  0
 11 12  1  0  0  0  0
 11 16  1  0  0  0  0
 11 42  1  0  0  0  0
 12 43  1  0  0  0  0
 12 44  1  0  0  0  0
 13 14  1  0  0  0  0
 13 45  1  0  0  0  0
 13 46  1  0  0  0  0
 14 47  1  0  0  0  0
 14 48  1  0  0  0  0
 15 17  1  0  0  0  0
 16 49  1  0  0  0  0
 16 50  1  0  0  0  0
 16 51  1  0  0  0  0
 17 19  1  0  0  0  0
 17 24  2  0  0  0  0
 18 20  1  0  0  0  0
 18 25  1  0  0  0  0
 18 26  1  0  0  0  0
 18 27  1  0  0  0  0
 20 22  1  0  0  0  0
 20 28  2  0  0  0  0
 21 32  1  0  0  0  0
 22 29  2  0  0  0  0
 24 30  1  0  0  0  0
 24 61  1  0  0  0  0
 25 52  1  0  0  0  0
 25 53  1  0  0  0  0
 25 54  1  0  0  0  0
 26 55  1  0  0  0  0
 26 56  1  0  0  0  0
 26 57  1  0  0  0  0
 27 58  1  0  0  0  0
 27 59  1  0  0  0  0
 27 60  1  0  0  0  0
 28 33  1  0  0  0  0
 28 62  1  0  0  0  0
 29 34  1  0  0  0  0
 29 63  1  0  0  0  0
 30 31  2  0  0  0  0
 31 35  1  0  0  0  0
 32 36  2  0  0  0  0
 32 64  1  0  0  0  0
 33 34  2  0  0  0  0
 33 65  1  0  0  0  0
 34 66  1  0  0  0  0
 35 37  2  0  0  0  0
 35 38  1  0  0  0  0
 36 67  1  0  0  0  0
 36 68  1  0  0  0  0
 37 39  1  0  0  0  0
 38 40  2  0  0  0  0
 39 41  2  0  0  0  0
 39 69  1  0  0  0  0
 40 41  1  0  0  0  0
 40 70  1  0  0  0  0
 41 71  1  0  0  0  0
M  END
> <PUBCHEM_COMPOUND_CID>
137278705

> <PUBCHEM_CONFORMER_RMSD>
1

> <PUBCHEM_CONFORMER_DIVERSEORDER>
1
6
17
23
12
24
13
14
25
21
16
10
20
19
7
8
15
22
5
3
11
18
2
9
4

> <PUBCHEM_MMFF94_PARTIAL_CHARGES>
48
1 -0.18
10 -0.62
11 0.37
12 0.3
13 0.37
14 0.3
15 0.41
17 0.09
18 0.14
19 0.43
2 -0.19
20 -0.14
21 0.62
22 0.12
23 0.84
24 -0.15
28 -0.15
29 -0.15
3 -0.57
30 0.18
31 0.31
32 -0.14
33 -0.15
34 -0.15
36 -0.3
37 0.08
38 0.19
39 -0.15
4 -0.57
40 -0.15
41 -0.15
5 -0.53
6 -0.79
61 0.15
62 0.15
63 0.15
64 0.15
65 0.15
66 0.15
67 0.15
68 0.15
69 0.15
7 -0.66
70 0.15
71 0.15
72 0.45
8 -0.29
9 -0.66

> <PUBCHEM_EFFECTIVE_ROTOR_COUNT>
7.2

> <PUBCHEM_PHARMACOPHORE_FEATURES>
11
1 3 acceptor
1 36 hydrophobe
1 4 acceptor
1 5 donor
1 9 donor
4 18 25 26 27 hydrophobe
6 10 17 19 24 30 31 rings
6 20 22 28 29 33 34 rings
6 35 37 38 39 40 41 rings
6 6 7 11 12 13 14 rings
6 8 9 15 17 19 23 rings

> <PUBCHEM_HEAVY_ATOM_COUNT>
41

> <PUBCHEM_ATOM_DEF_STEREO_COUNT>
1

> <PUBCHEM_ATOM_UDEF_STEREO_COUNT>
0

> <PUBCHEM_BOND_DEF_STEREO_COUNT>
0

> <PUBCHEM_BOND_UDEF_STEREO_COUNT>
0

> <PUBCHEM_ISOTOPIC_ATOM_COUNT>
0

> <PUBCHEM_COMPONENT_COUNT>
1

> <PUBCHEM_CACTVS_TAUTO_COUNT>
-1

> <PUBCHEM_CONFORMER_ID>
082EB4F100000001

> <PUBCHEM_MMFF94_ENERGY>
181.2303

> <PUBCHEM_FEATURE_SELFOVERLAP>
55.85

> <PUBCHEM_SHAPE_FINGERPRINT>
10190206 1 18340757179311908125
11115154 58 17982982787678052431
11135609 187 18193264201400987997
11621639 254 18123762117436238748
11991303 11 18263072220222396933
12156800 1 17977142065545924719
12160290 23 18193530360354678017
12440605 4 18336266726236909859
12741549 16 17604992701634748159
12788726 201 18410567426736897115
13540713 5 18189322508039040434
13690498 29 18270684276612885948
13757389 114 18340493261687470316
13782708 43 17846780741848182558
13911987 19 18190735336814135044
14028597 1 17458340849664572787
14068700 675 18265327498474028759
14118638 360 18260545641745191298
14856354 85 18191033493554540907
15276724 80 18269279122427742060
15324884 4 17321582309264678305
15439362 3 17905328425033490028
15444296 8 18129938017860468367
15484559 13 17834663899807380533
15775530 1 17914066304085344767
15968369 153 18269829990364275189
16114785 44 18410862040556603995
20766409 102 18119818164954037980
21772528 278 18267591204043157693
22311459 1 18264495147309499610
2747138 104 18191593158400384370
283562 15 18335420188235530747
3552219 110 17532954893466381790
4258327 124 18186522072791464668
469060 322 17385727993142215757
504843 32 18262516975646272941
5171179 24 17986656267940844424
5912855 24 18334572400419540602
9896288 288 18342748385979006641

> <PUBCHEM_SHAPE_MULTIPOLES>
795.84
14.95
6.27
2.14
38.46
3.94
-0.67
3.88
-1.91
-13.15
-0.2
-1.27
-1.05
-1.11

> <PUBCHEM_SHAPE_SELFOVERLAP>
1734.74

> <PUBCHEM_SHAPE_VOLUME>
434.7

> <PUBCHEM_COORDINATE_TYPE>
2
5
10

$$$$
146235944
  -OEChem-05102415023D

 68 72  0     1  0  0  0  0  0999 V2000
    0.1520   -3.8893    0.3257 Cl  0  0  0  0  0  0  0  0  0  0  0  0
   -2.5244   -2.9278   -2.3756 F   0  0  0  0  0  0  0  0  0  0  0  0
    7.4173   -0.9820   -0.9655 O   0  0  0  0  0  0  0  0  0  0  0  0
   -0.2152    3.9835   -0.7553 O   0  0  0  0  0  0  0  0  0  0  0  0
   -2.8698   -2.3483    2.3585 O   0  0  0  0  0  0  0  0  0  0  0  0
    2.8962    0.7222   -0.2068 N   0  0  0  0  0  0  0  0  0  0  0  0
    5.3486   -0.6711    0.0517 N   0  0  0  0  0  0  0  0  0  0  0  0
   -1.0631    1.8461   -0.4882 N   0  0  0  0  0  0  0  0  0  0  0  0
    1.2892    2.3284   -0.5202 N   0  0  0  0  0  0  0  0  0  0  0  0
   -1.8067   -0.4497   -0.2455 N   0  0  0  0  0  0  0  0  0  0  0  0
   -3.0005    2.2832   -1.8091 N   0  0  0  0  0  0  0  0  0  0  0  0
    3.7135    0.5026   -1.4078 C   0  0  2  0  0  0  0  0  0  0  0  0
    4.6206   -0.7160   -1.2157 C   0  0  0  0  0  0  0  0  0  0  0  0
    3.5833    0.7212    1.0851 C   0  0  0  0  0  0  0  0  0  0  0  0
    4.4970   -0.4926    1.2322 C   0  0  0  0  0  0  0  0  0  0  0  0
    1.5925    1.0807   -0.3032 C   0  0  0  0  0  0  0  0  0  0  0  0
    4.5080    1.7641   -1.7471 C   0  0  0  0  0  0  0  0  0  0  0  0
    0.5325    0.0553   -0.1709 C   0  0  0  0  0  0  0  0  0  0  0  0
    6.7316   -0.8341    0.0476 C   0  0  0  0  0  0  0  0  0  0  0  0
   -0.7948    0.4574   -0.2795 C   0  0  0  0  0  0  0  0  0  0  0  0
    0.8193   -1.3004    0.0211 C   0  0  0  0  0  0  0  0  0  0  0  0
   -0.0100    2.7763   -0.6109 C   0  0  0  0  0  0  0  0  0  0  0  0
   -2.4322    2.2705   -0.5824 C   0  0  0  0  0  0  0  0  0  0  0  0
   -3.0885    2.6408    0.5803 C   0  0  0  0  0  0  0  0  0  0  0  0
    7.4287   -0.8337    1.3491 C   0  0  0  0  0  0  0  0  0  0  0  0
   -0.2148   -2.2238    0.0839 C   0  0  0  0  0  0  0  0  0  0  0  0
   -2.4280    2.6141    1.9168 C   0  0  0  0  0  0  0  0  0  0  0  0
   -1.5017   -1.7520   -0.0591 C   0  0  0  0  0  0  0  0  0  0  0  0
   -4.4134    3.0504    0.4777 C   0  0  0  0  0  0  0  0  0  0  0  0
   -2.6621   -2.6150   -0.0216 C   0  0  0  0  0  0  0  0  0  0  0  0
   -3.1061    1.6304    2.8896 C   0  0  0  0  0  0  0  0  0  0  0  0
   -2.3441    4.0111    2.5609 C   0  0  0  0  0  0  0  0  0  0  0  0
    8.6855   -0.3886    1.4072 C   0  0  0  0  0  0  0  0  0  0  0  0
   -5.0327    3.0769   -0.7669 C   0  0  0  0  0  0  0  0  0  0  0  0
   -4.2893    2.6871   -1.8695 C   0  0  0  0  0  0  0  0  0  0  0  0
   -3.3083   -2.8857    1.1844 C   0  0  0  0  0  0  0  0  0  0  0  0
   -3.1339   -3.1781   -1.2075 C   0  0  0  0  0  0  0  0  0  0  0  0
   -4.4263   -3.7197    1.2047 C   0  0  0  0  0  0  0  0  0  0  0  0
   -4.2518   -4.0119   -1.1871 C   0  0  0  0  0  0  0  0  0  0  0  0
   -4.8980   -4.2827    0.0190 C   0  0  0  0  0  0  0  0  0  0  0  0
    3.0539    0.2903   -2.2597 H   0  0  0  0  0  0  0  0  0  0  0  0
    4.0136   -1.6297   -1.1899 H   0  0  0  0  0  0  0  0  0  0  0  0
    5.3072   -0.8171   -2.0629 H   0  0  0  0  0  0  0  0  0  0  0  0
    2.8593    0.7262    1.9090 H   0  0  0  0  0  0  0  0  0  0  0  0
    4.1708    1.6427    1.1741 H   0  0  0  0  0  0  0  0  0  0  0  0
    5.0773   -0.3795    2.1487 H   0  0  0  0  0  0  0  0  0  0  0  0
    3.9035   -1.4084    1.3340 H   0  0  0  0  0  0  0  0  0  0  0  0
    5.2127    2.0331   -0.9535 H   0  0  0  0  0  0  0  0  0  0  0  0
    3.8403    2.6187   -1.8987 H   0  0  0  0  0  0  0  0  0  0  0  0
    5.0820    1.6205   -2.6687 H   0  0  0  0  0  0  0  0  0  0  0  0
    1.8447   -1.6447    0.1093 H   0  0  0  0  0  0  0  0  0  0  0  0
    6.9500   -1.2300    2.2345 H   0  0  0  0  0  0  0  0  0  0  0  0
   -1.3909    2.2732    1.8393 H   0  0  0  0  0  0  0  0  0  0  0  0
   -4.9826    3.3530    1.3520 H   0  0  0  0  0  0  0  0  0  0  0  0
   -4.1283    1.9366    3.1365 H   0  0  0  0  0  0  0  0  0  0  0  0
   -3.1520    0.6252    2.4566 H   0  0  0  0  0  0  0  0  0  0  0  0
   -2.5427    1.5670    3.8269 H   0  0  0  0  0  0  0  0  0  0  0  0
   -3.3350    4.4175    2.7903 H   0  0  0  0  0  0  0  0  0  0  0  0
   -1.7774    3.9690    3.4974 H   0  0  0  0  0  0  0  0  0  0  0  0
   -1.8375    4.7170    1.8932 H   0  0  0  0  0  0  0  0  0  0  0  0
    9.2213   -0.4031    2.3508 H   0  0  0  0  0  0  0  0  0  0  0  0
    9.2116    0.0046    0.5442 H   0  0  0  0  0  0  0  0  0  0  0  0
   -6.0644    3.3924   -0.8710 H   0  0  0  0  0  0  0  0  0  0  0  0
   -4.7260    2.6897   -2.8628 H   0  0  0  0  0  0  0  0  0  0  0  0
   -4.9403   -3.9397    2.1366 H   0  0  0  0  0  0  0  0  0  0  0  0
   -4.6190   -4.4501   -2.1104 H   0  0  0  0  0  0  0  0  0  0  0  0
   -5.7685   -4.9320    0.0346 H   0  0  0  0  0  0  0  0  0  0  0  0
   -3.4466   -2.6481    3.0819 H   0  0  0  0  0  0  0  0  0  0  0  0
  1 26  1  0  0  0  0
  2 37  1  0  0  0  0
  3 19  2  0  0  0  0
  4 22  2  0  0  0  0
  5 36  1  0  0  0  0
  5 68  1  0  0  0  0
  6 12  1  0  0  0  0
  6 14  1  0  0  0  0
  6 16  1  0  0  0  0
  7 13  1  0  0  0  0
  7 15  1  0  0  0  0
  7 19  1  0  0  0  0
  8 20  1  0  0  0  0
  8 22  1  0  0  0  0
  8 23  1  0  0  0  0
  9 16  2  0  0  0  0
  9 22  1  0  0  0  0
 10 20  2  0  0  0  0
 10 28  1  0  0  0  0
 11 23  1  0  0  0  0
 11 35  2  0  0  0  0
 12 13  1  0  0  0  0
 12 17  1  0  0  0  0
 12 41  1  0  0  0  0
 13 42  1  0  0  0  0
 13 43  1  0  0  0  0
 14 15  1  0  0  0  0
 14 44  1  0  0  0  0
 14 45  1  0  0  0  0
 15 46  1  0  0  0  0
 15 47  1  0  0  0  0
 16 18  1  0  0  0  0
 17 48  1  0  0  0  0
 17 49  1  0  0  0  0
 17 50  1  0  0  0  0
 18 20  1  0  0  0  0
 18 21  2  0  0  0  0
 19 25  1  0  0  0  0
 21 26  1  0  0  0  0
 21 51  1  0  0  0  0
 23 24  2  0  0  0  0
 24 27  1  0  0  0  0
 24 29  1  0  0  0  0
 25 33  2  0  0  0  0
 25 52  1  0  0  0  0
 26 28  2  0  0  0  0
 27 31  1  0  0  0  0
 27 32  1  0  0  0  0
 27 53  1  0  0  0  0
 28 30  1  0  0  0  0
 29 34  2  0  0  0  0
 29 54  1  0  0  0  0
 30 36  2  0  0  0  0
 30 37  1  0  0  0  0
 31 55  1  0  0  0  0
 31 56  1  0  0  0  0
 31 57  1  0  0  0  0
 32 58  1  0  0  0  0
 32 59  1  0  0  0  0
 32 60  1  0  0  0  0
 33 61  1  0  0  0  0
 33 62  1  0  0  0  0
 34 35  1  0  0  0  0
 34 63  1  0  0  0  0
 35 64  1  0  0  0  0
 36 38  1  0  0  0  0
 37 39  2  0  0  0  0
 38 40  2  0  0  0  0
 38 65  1  0  0  0  0
 39 40  1  0  0  0  0
 39 66  1  0  0  0  0
 40 67  1  0  0  0  0
M  END
> <PUBCHEM_COMPOUND_CID>
146235944

> <PUBCHEM_CONFORMER_RMSD>
1

> <PUBCHEM_CONFORMER_DIVERSEORDER>
1
23
33
31
39
9
15
30
21
27
36
38
29
18
24
2
25
14
37
34
13
35
6
22
17
19
32
28
10
3
7
16
11
20
8
12
5
26
4

> <PUBCHEM_MMFF94_PARTIAL_CHARGES>
47
1 -0.18
10 -0.62
11 -0.62
12 0.37
13 0.3
14 0.37
15 0.3
16 0.41
18 0.09
19 0.62
2 -0.19
20 0.43
21 -0.15
22 0.84
23 0.43
24 -0.14
25 -0.14
26 0.18
27 0.14
28 0.31
29 -0.15
3 -0.57
33 -0.3
34 -0.15
35 0.16
36 0.08
37 0.19
38 -0.15
39 -0.15
4 -0.57
40 -0.15
5 -0.53
51 0.15
52 0.15
54 0.15
6 -0.79
61 0.15
62 0.15
63 0.15
64 0.15
65 0.15
66 0.15
67 0.15
68 0.45
7 -0.66
8 -0.29
9 -0.66

> <PUBCHEM_EFFECTIVE_ROTOR_COUNT>
7.2

> <PUBCHEM_PHARMACOPHORE_FEATURES>
12
1 11 acceptor
1 3 acceptor
1 33 hydrophobe
1 4 acceptor
1 5 donor
1 9 donor
3 27 31 32 hydrophobe
6 10 18 20 21 26 28 rings
6 11 23 24 29 34 35 rings
6 30 36 37 38 39 40 rings
6 6 7 12 13 14 15 rings
6 8 9 16 18 20 22 rings

> <PUBCHEM_HEAVY_ATOM_COUNT>
40

> <PUBCHEM_ATOM_DEF_STEREO_COUNT>
1

> <PUBCHEM_ATOM_UDEF_STEREO_COUNT>
0

> <PUBCHEM_BOND_DEF_STEREO_COUNT>
0

> <PUBCHEM_BOND_UDEF_STEREO_COUNT>
0

> <PUBCHEM_ISOTOPIC_ATOM_COUNT>
0

> <PUBCHEM_COMPONENT_COUNT>
1

> <PUBCHEM_CACTVS_TAUTO_COUNT>
-1

> <PUBCHEM_CONFORMER_ID>
08B7622800000001

> <PUBCHEM_MMFF94_ENERGY>
152.04

> <PUBCHEM_FEATURE_SELFOVERLAP>
60.925

> <PUBCHEM_SHAPE_FINGERPRINT>
10050765 1 18335700606930030196
10411042 1 18192146208006320951
11007060 377 18270956830853352416
11445158 3 15648495240806569366
11991303 11 18187925041623407573
12156800 1 18048277242353226569
12160290 23 18338255828891798157
12422481 6 17986979477431358895
12440605 4 18117578403010140640
12633046 712 17559979670245044556
12655364 131 17621599415068113754
12788726 201 18266748067565907838
13140716 1 18410012147927622436
13540713 5 18189066420629873220
13583140 156 16878237346334441596
13692114 37 18201445732021091889
13692115 27 18338241590642929126
13782708 43 18131632314356928094
13911987 19 18044358436567063717
14068700 675 18268706284879655311
14118638 360 18188493614047910092
14279260 333 18336529552207268446
14347332 77 18337955705077742486
14674994 50 18273210920268955261
14856354 85 15648200481053153628
14866123 147 18407761443440977755
15021287 119 17167869647472426740
15131766 46 15721684266800664972
15219462 58 16270272296013168532
15264996 74 18341319038027072439
15439362 3 17906165157713852038
15484559 13 18050268294797518605
1577012 14 17821731612304631134
15927050 60 18265328400613015095
1813 80 18053955218619189847
18603816 31 16515404066955796280
19301679 30 18265340675413431523
19311894 1 18409737227081217260
21033650 10 14707745386788834526
21639891 77 18342172293067269137
21703447 108 18192419995408056480
22223350 30 18411410718112330152
22311459 1 18263640667771315380
23559900 14 18341604907409824932
244849 19 17345449618389860818
283562 15 18337112392401747491
3383291 50 18272084985696724703
3504750 166 18342455958868132046
4073 2 18272365344572554190
4409770 3 18342174467090652119
4616759 239 18130210572538056672
484985 159 18186518817369491995
5080951 261 18343576352272758735
508180 173 18053352635609732599
513202 73 18336553810314307527
5171179 24 18198335363116688089
6376802 137 17632288000242283201
6669772 16 18122905330846294023
6691757 9 18270400486300844640
70251023 43 18121220054466956227

> <PUBCHEM_SHAPE_MULTIPOLES>
770.28
15.26
6.25
2.05
37.87
2.03
-0.77
4.68
-2.26
-13.52
-0.22
-1.18
-0.95
-0.94

> <PUBCHEM_SHAPE_SELFOVERLAP>
1674.882

> <PUBCHEM_SHAPE_VOLUME>
422.1

> <PUBCHEM_COORDINATE_TYPE>
2
5
10

$$$$
146235053
  -OEChem-05102415023D

 66 70  0     0  0  0  0  0  0999 V2000
   -0.7969    3.7563   -0.1642 Cl  0  0  0  0  0  0  0  0  0  0  0  0
    2.4363    2.8189   -2.1517 F   0  0  0  0  0  0  0  0  0  0  0  0
   -7.3483    0.6195    1.0912 O   0  0  0  0  0  0  0  0  0  0  0  0
    0.6701   -4.0229    0.9092 O   0  0  0  0  0  0  0  0  0  0  0  0
   -2.8149   -1.1755    0.3526 N   0  0  0  0  0  0  0  0  0  0  0  0
   -5.3009    0.1483    0.0889 N   0  0  0  0  0  0  0  0  0  0  0  0
    1.2541   -1.8048    0.6029 N   0  0  0  0  0  0  0  0  0  0  0  0
   -1.0236   -2.5619    0.6708 N   0  0  0  0  0  0  0  0  0  0  0  0
   -3.6600   -1.0248    1.5320 C   0  0  0  0  0  0  0  0  0  0  0  0
   -3.5188   -1.2613   -0.9221 C   0  0  0  0  0  0  0  0  0  0  0  0
   -4.5794    0.1784    1.3634 C   0  0  0  0  0  0  0  0  0  0  0  0
   -4.4632   -0.0735   -1.0984 C   0  0  0  0  0  0  0  0  0  0  0  0
   -1.4784   -1.3620    0.4474 C   0  0  0  0  0  0  0  0  0  0  0  0
   -0.5550   -0.2080    0.3107 C   0  0  0  0  0  0  0  0  0  0  0  0
    0.8192   -0.4561    0.4204 C   0  0  0  0  0  0  0  0  0  0  0  0
    2.6531   -2.1102    0.5943 C   0  0  0  0  0  0  0  0  0  0  0  0
   -6.6646    0.4370    0.0824 C   0  0  0  0  0  0  0  0  0  0  0  0
    3.3064   -2.4377   -0.5937 C   0  0  0  0  0  0  0  0  0  0  0  0
   -1.0341    1.0977    0.1229 C   0  0  0  0  0  0  0  0  0  0  0  0
    0.3194   -2.8509    0.7517 C   0  0  0  0  0  0  0  0  0  0  0  0
    1.6914    0.6483    0.4099 C   0  0  0  0  0  0  0  0  0  0  0  0
    2.5715   -2.4804   -1.8941 C   0  0  0  0  0  0  0  0  0  0  0  0
    1.2132    1.9475    0.2259 C   0  0  0  0  0  0  0  0  0  0  0  0
   -0.1476    2.1704    0.0711 C   0  0  0  0  0  0  0  0  0  0  0  0
    3.3629   -2.0773    1.7946 C   0  0  0  0  0  0  0  0  0  0  0  0
    4.6698   -2.7323   -0.5814 C   0  0  0  0  0  0  0  0  0  0  0  0
    3.1066   -1.4490   -2.9040 C   0  0  0  0  0  0  0  0  0  0  0  0
    2.5773   -3.8847   -2.5246 C   0  0  0  0  0  0  0  0  0  0  0  0
    2.1747    3.0341    0.2025 C   0  0  0  0  0  0  0  0  0  0  0  0
   -7.3392    0.5397   -1.2275 C   0  0  0  0  0  0  0  0  0  0  0  0
    4.7264   -2.3718    1.8068 C   0  0  0  0  0  0  0  0  0  0  0  0
    5.3797   -2.6993    0.6187 C   0  0  0  0  0  0  0  0  0  0  0  0
    2.7550    3.4316   -1.0020 C   0  0  0  0  0  0  0  0  0  0  0  0
    2.5194    3.6808    1.3894 C   0  0  0  0  0  0  0  0  0  0  0  0
   -8.6302    0.2130   -1.3152 C   0  0  0  0  0  0  0  0  0  0  0  0
    3.6798    4.4756   -1.0198 C   0  0  0  0  0  0  0  0  0  0  0  0
    3.4443    4.7249    1.3717 C   0  0  0  0  0  0  0  0  0  0  0  0
    4.0244    5.1223    0.1671 C   0  0  0  0  0  0  0  0  0  0  0  0
   -4.2537   -1.9375    1.6623 H   0  0  0  0  0  0  0  0  0  0  0  0
   -3.0534   -0.8980    2.4365 H   0  0  0  0  0  0  0  0  0  0  0  0
   -2.8131   -1.2939   -1.7606 H   0  0  0  0  0  0  0  0  0  0  0  0
   -4.0907   -2.1970   -0.9442 H   0  0  0  0  0  0  0  0  0  0  0  0
   -5.2771    0.2266    2.2058 H   0  0  0  0  0  0  0  0  0  0  0  0
   -4.0010    1.1093    1.3757 H   0  0  0  0  0  0  0  0  0  0  0  0
   -3.9010    0.8513   -1.2659 H   0  0  0  0  0  0  0  0  0  0  0  0
   -5.0682   -0.2503   -1.9898 H   0  0  0  0  0  0  0  0  0  0  0  0
   -2.0959    1.2931    0.0321 H   0  0  0  0  0  0  0  0  0  0  0  0
    2.7635    0.5016    0.5258 H   0  0  0  0  0  0  0  0  0  0  0  0
    1.5147   -2.2302   -1.7568 H   0  0  0  0  0  0  0  0  0  0  0  0
    2.8647   -1.8241    2.7270 H   0  0  0  0  0  0  0  0  0  0  0  0
    5.2018   -2.9901   -1.4929 H   0  0  0  0  0  0  0  0  0  0  0  0
    4.1368   -1.6651   -3.2064 H   0  0  0  0  0  0  0  0  0  0  0  0
    2.4899   -1.4430   -3.8094 H   0  0  0  0  0  0  0  0  0  0  0  0
    3.0862   -0.4397   -2.4780 H   0  0  0  0  0  0  0  0  0  0  0  0
    3.5852   -4.2034   -2.8109 H   0  0  0  0  0  0  0  0  0  0  0  0
    2.1759   -4.6267   -1.8254 H   0  0  0  0  0  0  0  0  0  0  0  0
    1.9555   -3.9030   -3.4264 H   0  0  0  0  0  0  0  0  0  0  0  0
   -6.8082    0.9117   -2.0939 H   0  0  0  0  0  0  0  0  0  0  0  0
    5.2791   -2.3461    2.7412 H   0  0  0  0  0  0  0  0  0  0  0  0
    6.4413   -2.9284    0.6285 H   0  0  0  0  0  0  0  0  0  0  0  0
    2.0767    3.3836    2.3372 H   0  0  0  0  0  0  0  0  0  0  0  0
   -9.1471    0.3019   -2.2652 H   0  0  0  0  0  0  0  0  0  0  0  0
   -9.2037   -0.1533   -0.4709 H   0  0  0  0  0  0  0  0  0  0  0  0
    4.1316    4.7845   -1.9577 H   0  0  0  0  0  0  0  0  0  0  0  0
    3.7127    5.2285    2.2958 H   0  0  0  0  0  0  0  0  0  0  0  0
    4.7445    5.9352    0.1532 H   0  0  0  0  0  0  0  0  0  0  0  0
  1 24  1  0  0  0  0
  2 33  1  0  0  0  0
  3 17  2  0  0  0  0
  4 20  2  0  0  0  0
  5  9  1  0  0  0  0
  5 10  1  0  0  0  0
  5 13  1  0  0  0  0
  6 11  1  0  0  0  0
  6 12  1  0  0  0  0
  6 17  1  0  0  0  0
  7 15  1  0  0  0  0
  7 16  1  0  0  0  0
  7 20  1  0  0  0  0
  8 13  2  0  0  0  0
  8 20  1  0  0  0  0
  9 11  1  0  0  0  0
  9 39  1  0  0  0  0
  9 40  1  0  0  0  0
 10 12  1  0  0  0  0
 10 41  1  0  0  0  0
 10 42  1  0  0  0  0
 11 43  1  0  0  0  0
 11 44  1  0  0  0  0
 12 45  1  0  0  0  0
 12 46  1  0  0  0  0
 13 14  1  0  0  0  0
 14 15  1  0  0  0  0
 14 19  2  0  0  0  0
 15 21  2  0  0  0  0
 16 18  1  0  0  0  0
 16 25  2  0  0  0  0
 17 30  1  0  0  0  0
 18 22  1  0  0  0  0
 18 26  2  0  0  0  0
 19 24  1  0  0  0  0
 19 47  1  0  0  0  0
 21 23  1  0  0  0  0
 21 48  1  0  0  0  0
 22 27  1  0  0  0  0
 22 28  1  0  0  0  0
 22 49  1  0  0  0  0
 23 24  2  0  0  0  0
 23 29  1  0  0  0  0
 25 31  1  0  0  0  0
 25 50  1  0  0  0  0
 26 32  1  0  0  0  0
 26 51  1  0  0  0  0
 27 52  1  0  0  0  0
 27 53  1  0  0  0  0
 27 54  1  0  0  0  0
 28 55  1  0  0  0  0
 28 56  1  0  0  0  0
 28 57  1  0  0  0  0
 29 33  1  0  0  0  0
 29 34  2  0  0  0  0
 30 35  2  0  0  0  0
 30 58  1  0  0  0  0
 31 32  2  0  0  0  0
 31 59  1  0  0  0  0
 32 60  1  0  0  0  0
 33 36  2  0  0  0  0
 34 37  1  0  0  0  0
 34 61  1  0  0  0  0
 35 62  1  0  0  0  0
 35 63  1  0  0  0  0
 36 38  1  0  0  0  0
 36 64  1  0  0  0  0
 37 38  2  0  0  0  0
 37 65  1  0  0  0  0
 38 66  1  0  0  0  0
M  END
> <PUBCHEM_COMPOUND_CID>
146235053

> <PUBCHEM_CONFORMER_RMSD>
1

> <PUBCHEM_CONFORMER_DIVERSEORDER>
1
8
9
15
16
12
13
2
17
23
14
21
7
10
3
20
22
5
4
19
6
11
18

> <PUBCHEM_MMFF94_PARTIAL_CHARGES>
47
1 -0.18
10 0.37
11 0.3
12 0.3
13 0.41
14 0.09
15 0.12
16 0.12
17 0.62
18 -0.14
19 -0.15
2 -0.19
20 0.84
21 -0.15
22 0.14
24 0.18
25 -0.15
26 -0.15
3 -0.57
30 -0.14
31 -0.15
32 -0.15
33 0.19
34 -0.15
35 -0.3
36 -0.15
37 -0.15
38 -0.15
4 -0.57
47 0.15
48 0.15
5 -0.79
50 0.15
51 0.15
58 0.15
59 0.15
6 -0.66
60 0.15
61 0.15
62 0.15
63 0.15
64 0.15
65 0.15
66 0.15
7 -0.29
8 -0.66
9 0.37

> <PUBCHEM_EFFECTIVE_ROTOR_COUNT>
7.2

> <PUBCHEM_PHARMACOPHORE_FEATURES>
10
1 3 acceptor
1 35 hydrophobe
1 4 acceptor
1 8 donor
3 22 27 28 hydrophobe
6 14 15 19 21 23 24 rings
6 16 18 25 26 31 32 rings
6 29 33 34 36 37 38 rings
6 5 6 9 10 11 12 rings
6 7 8 13 14 15 20 rings

> <PUBCHEM_HEAVY_ATOM_COUNT>
38

> <PUBCHEM_ATOM_DEF_STEREO_COUNT>
0

> <PUBCHEM_ATOM_UDEF_STEREO_COUNT>
0

> <PUBCHEM_BOND_DEF_STEREO_COUNT>
0

> <PUBCHEM_BOND_UDEF_STEREO_COUNT>
0

> <PUBCHEM_ISOTOPIC_ATOM_COUNT>
0

> <PUBCHEM_COMPONENT_COUNT>
1

> <PUBCHEM_CACTVS_TAUTO_COUNT>
-1

> <PUBCHEM_CONFORMER_ID>
08B75EAD00000001

> <PUBCHEM_MMFF94_ENERGY>
153.1566

> <PUBCHEM_FEATURE_SELFOVERLAP>
50.771

> <PUBCHEM_SHAPE_FINGERPRINT>
10050765 1 18264203776933906211
10079526 769 18059308564936278889
10169797 241 18335435555812475945
10675989 125 18411989082634882729
10721379 63 18341060678506345976
10816530 90 18333732438050034632
11062273 29 18338524135467605796
11297010 23 18340763857363834020
11297750 10 17969768705767838228
11331351 85 17986386698634167562
11578080 2 17750248060907548286
12160290 23 17397565112415852920
12422481 6 17533192379636603084
12677640 9 16748448558424299122
13140716 1 18335138734680987123
13540713 4 18115599278528676419
13782708 43 17822023021235158867
140371 6 18342184314659715730
14068700 675 18270674247568831721
14790565 3 17758680335940695544
15198563 99 18049735023025511636
15420108 30 17984687081607221864
15439362 3 18336260262242270800
15664445 248 18269846332714966422
15927050 60 18122065570208446946
1813 80 18199475367733040831
18365409 1 17130966802491033719
20642791 13 18127974105425366442
21033648 29 17385435524257437517
21133665 82 17905900520128235052
21796203 349 17903960740295790744
22311459 1 18336541608734239059
23559900 14 18343588460075859410
23576562 1 18334581278191191111
244849 19 17532109326602438313
24771293 8 18200871781780739218
24771750 20 18263656210671897286
3178227 256 18262244326721887035
3298306 158 18122916597003933772
3411729 13 18263360446460337849
376196 1 18123184877308445752
4066623 53 18114461163328831197
469060 322 18121792620794099546
5385378 56 18336830917472756857
6004065 56 18413385419447074139
9896288 288 17398388015518001424
9961470 85 18338510966744175265
9962374 69 18342165675292818383

> <PUBCHEM_SHAPE_MULTIPOLES>
744.96
14.59
6.84
1.93
38.94
7.22
0.96
-0.45
1.98
-14.48
0.42
-1.37
-1.11
0.42

> <PUBCHEM_SHAPE_SELFOVERLAP>
1621.49

> <PUBCHEM_SHAPE_VOLUME>
406.9

> <PUBCHEM_COORDINATE_TYPE>
2
5
10

$$$$
146235429
  -OEChem-05102415023D

 69 73  0     1  0  0  0  0  0999 V2000
    0.1686   -3.9561   -0.4282 Cl  0  0  0  0  0  0  0  0  0  0  0  0
   -2.7071   -2.3297   -2.5410 F   0  0  0  0  0  0  0  0  0  0  0  0
    7.3097   -0.6389   -1.3724 O   0  0  0  0  0  0  0  0  0  0  0  0
   -0.2895    3.8917    0.7911 O   0  0  0  0  0  0  0  0  0  0  0  0
   -2.6916   -3.1237    2.1747 O   0  0  0  0  0  0  0  0  0  0  0  0
    2.8585    0.6796    0.1668 N   0  0  0  0  0  0  0  0  0  0  0  0
    5.3252   -0.6739   -0.1595 N   0  0  0  0  0  0  0  0  0  0  0  0
   -1.1119    1.7466    0.5059 N   0  0  0  0  0  0  0  0  0  0  0  0
    1.2304    2.2720    0.4384 N   0  0  0  0  0  0  0  0  0  0  0  0
   -3.0840    3.0393   -0.2058 N   0  0  0  0  0  0  0  0  0  0  0  0
   -1.8320   -0.5411    0.1450 N   0  0  0  0  0  0  0  0  0  0  0  0
   -4.3730    3.2811    0.0875 N   0  0  0  0  0  0  0  0  0  0  0  0
    3.5812    0.8253   -1.1041 C   0  0  2  0  0  0  0  0  0  0  0  0
    4.5018   -0.3772   -1.3309 C   0  0  0  0  0  0  0  0  0  0  0  0
    3.6431    0.3310    1.3517 C   0  0  0  0  0  0  0  0  0  0  0  0
    4.5668   -0.8541    1.0828 C   0  0  0  0  0  0  0  0  0  0  0  0
    1.5509    1.0209    0.2716 C   0  0  0  0  0  0  0  0  0  0  0  0
    4.3458    2.1491   -1.1312 C   0  0  0  0  0  0  0  0  0  0  0  0
    0.5055   -0.0242    0.1868 C   0  0  0  0  0  0  0  0  0  0  0  0
    6.7039   -0.7975   -0.3111 C   0  0  0  0  0  0  0  0  0  0  0  0
   -0.8267    0.3618    0.2940 C   0  0  0  0  0  0  0  0  0  0  0  0
   -2.4847    2.1491    0.6362 C   0  0  0  0  0  0  0  0  0  0  0  0
   -0.0725    2.6976    0.5735 C   0  0  0  0  0  0  0  0  0  0  0  0
    0.8076   -1.3723   -0.0331 C   0  0  0  0  0  0  0  0  0  0  0  0
   -2.4814    3.7133   -1.3331 C   0  0  0  0  0  0  0  0  0  0  0  0
   -3.4490    1.7833    1.5436 C   0  0  0  0  0  0  0  0  0  0  0  0
   -0.2175   -2.2995   -0.1575 C   0  0  0  0  0  0  0  0  0  0  0  0
   -1.5121   -1.8359   -0.0665 C   0  0  0  0  0  0  0  0  0  0  0  0
    7.4992   -1.1473    0.8827 C   0  0  0  0  0  0  0  0  0  0  0  0
   -4.5903    2.5110    1.1570 C   0  0  0  0  0  0  0  0  0  0  0  0
   -2.4694    5.2319   -1.1411 C   0  0  0  0  0  0  0  0  0  0  0  0
   -3.1690    3.3349   -2.6475 C   0  0  0  0  0  0  0  0  0  0  0  0
   -3.3254    0.8425    2.6699 C   0  0  0  0  0  0  0  0  0  0  0  0
   -2.6655   -2.7001   -0.1916 C   0  0  0  0  0  0  0  0  0  0  0  0
    8.7562   -0.7079    0.9714 C   0  0  0  0  0  0  0  0  0  0  0  0
   -3.2177   -3.3160    0.9314 C   0  0  0  0  0  0  0  0  0  0  0  0
   -3.2256   -2.9145   -1.4509 C   0  0  0  0  0  0  0  0  0  0  0  0
   -4.3302   -4.1465    0.7950 C   0  0  0  0  0  0  0  0  0  0  0  0
   -4.3381   -3.7449   -1.5873 C   0  0  0  0  0  0  0  0  0  0  0  0
   -4.8903   -4.3609   -0.4642 C   0  0  0  0  0  0  0  0  0  0  0  0
    2.8582    0.8462   -1.9303 H   0  0  0  0  0  0  0  0  0  0  0  0
    3.8996   -1.2749   -1.5194 H   0  0  0  0  0  0  0  0  0  0  0  0
    5.1212   -0.2202   -2.2203 H   0  0  0  0  0  0  0  0  0  0  0  0
    2.9848    0.0876    2.1945 H   0  0  0  0  0  0  0  0  0  0  0  0
    4.2347    1.2034    1.6536 H   0  0  0  0  0  0  0  0  0  0  0  0
    5.2158   -0.9900    1.9487 H   0  0  0  0  0  0  0  0  0  0  0  0
    3.9839   -1.7748    0.9654 H   0  0  0  0  0  0  0  0  0  0  0  0
    5.1092    2.2001   -0.3480 H   0  0  0  0  0  0  0  0  0  0  0  0
    3.6674    2.9964   -0.9860 H   0  0  0  0  0  0  0  0  0  0  0  0
    4.8473    2.2836   -2.0955 H   0  0  0  0  0  0  0  0  0  0  0  0
    1.8372   -1.7039   -0.1220 H   0  0  0  0  0  0  0  0  0  0  0  0
   -1.4470    3.3781   -1.4346 H   0  0  0  0  0  0  0  0  0  0  0  0
    7.0905   -1.7873    1.6531 H   0  0  0  0  0  0  0  0  0  0  0  0
   -5.5725    2.5140    1.6080 H   0  0  0  0  0  0  0  0  0  0  0  0
   -3.4844    5.6453   -1.1531 H   0  0  0  0  0  0  0  0  0  0  0  0
   -2.0132    5.5159   -0.1880 H   0  0  0  0  0  0  0  0  0  0  0  0
   -1.9041    5.7163   -1.9444 H   0  0  0  0  0  0  0  0  0  0  0  0
   -4.2118    3.6700   -2.6713 H   0  0  0  0  0  0  0  0  0  0  0  0
   -2.6515    3.7888   -3.4995 H   0  0  0  0  0  0  0  0  0  0  0  0
   -3.1654    2.2484   -2.7903 H   0  0  0  0  0  0  0  0  0  0  0  0
   -2.2938    0.7734    3.0295 H   0  0  0  0  0  0  0  0  0  0  0  0
   -3.9452    1.1641    3.5135 H   0  0  0  0  0  0  0  0  0  0  0  0
   -3.6553   -0.1578    2.3730 H   0  0  0  0  0  0  0  0  0  0  0  0
    9.3631   -0.9749    1.8305 H   0  0  0  0  0  0  0  0  0  0  0  0
    9.2139   -0.0760    0.2181 H   0  0  0  0  0  0  0  0  0  0  0  0
   -4.7715   -4.6331    1.6608 H   0  0  0  0  0  0  0  0  0  0  0  0
   -4.7741   -3.9117   -2.5678 H   0  0  0  0  0  0  0  0  0  0  0  0
   -5.7565   -5.0074   -0.5705 H   0  0  0  0  0  0  0  0  0  0  0  0
   -3.2109   -3.6299    2.8227 H   0  0  0  0  0  0  0  0  0  0  0  0
  1 27  1  0  0  0  0
  2 37  1  0  0  0  0
  3 20  2  0  0  0  0
  4 23  2  0  0  0  0
  5 36  1  0  0  0  0
  5 69  1  0  0  0  0
  6 13  1  0  0  0  0
  6 15  1  0  0  0  0
  6 17  1  0  0  0  0
  7 14  1  0  0  0  0
  7 16  1  0  0  0  0
  7 20  1  0  0  0  0
  8 21  1  0  0  0  0
  8 22  1  0  0  0  0
  8 23  1  0  0  0  0
  9 17  2  0  0  0  0
  9 23  1  0  0  0  0
 10 12  1  0  0  0  0
 10 22  1  0  0  0  0
 10 25  1  0  0  0  0
 11 21  2  0  0  0  0
 11 28  1  0  0  0  0
 12 30  2  0  0  0  0
 13 14  1  0  0  0  0
 13 18  1  0  0  0  0
 13 41  1  0  0  0  0
 14 42  1  0  0  0  0
 14 43  1  0  0  0  0
 15 16  1  0  0  0  0
 15 44  1  0  0  0  0
 15 45  1  0  0  0  0
 16 46  1  0  0  0  0
 16 47  1  0  0  0  0
 17 19  1  0  0  0  0
 18 48  1  0  0  0  0
 18 49  1  0  0  0  0
 18 50  1  0  0  0  0
 19 21  1  0  0  0  0
 19 24  2  0  0  0  0
 20 29  1  0  0  0  0
 22 26  2  0  0  0  0
 24 27  1  0  0  0  0
 24 51  1  0  0  0  0
 25 31  1  0  0  0  0
 25 32  1  0  0  0  0
 25 52  1  0  0  0  0
 26 30  1  0  0  0  0
 26 33  1  0  0  0  0
 27 28  2  0  0  0  0
 28 34  1  0  0  0  0
 29 35  2  0  0  0  0
 29 53  1  0  0  0  0
 30 54  1  0  0  0  0
 31 55  1  0  0  0  0
 31 56  1  0  0  0  0
 31 57  1  0  0  0  0
 32 58  1  0  0  0  0
 32 59  1  0  0  0  0
 32 60  1  0  0  0  0
 33 61  1  0  0  0  0
 33 62  1  0  0  0  0
 33 63  1  0  0  0  0
 34 36  2  0  0  0  0
 34 37  1  0  0  0  0
 35 64  1  0  0  0  0
 35 65  1  0  0  0  0
 36 38  1  0  0  0  0
 37 39  2  0  0  0  0
 38 40  2  0  0  0  0
 38 66  1  0  0  0  0
 39 40  1  0  0  0  0
 39 67  1  0  0  0  0
 40 68  1  0  0  0  0
M  END
> <PUBCHEM_COMPOUND_CID>
146235429

> <PUBCHEM_CONFORMER_RMSD>
1

> <PUBCHEM_CONFORMER_DIVERSEORDER>
1
13
31
37
44
33
16
27
39
25
14
43
40
21
24
26
28
29
47
38
35
19
5
17
36
45
23
30
12
2
15
32
34
22
18
20
3
46
11
41
10
4
42
8
9
6
7

> <PUBCHEM_MMFF94_PARTIAL_CHARGES>
45
1 -0.18
10 0.31
11 -0.62
12 -0.71
13 0.37
14 0.3
15 0.37
16 0.3
17 0.41
19 0.09
2 -0.19
20 0.62
21 0.43
22 -0.09
23 0.84
24 -0.15
25 0.26
26 -0.18
27 0.18
28 0.31
29 -0.14
3 -0.57
30 0.14
33 0.18
35 -0.3
36 0.08
37 0.19
38 -0.15
39 -0.15
4 -0.57
40 -0.15
5 -0.53
51 0.15
53 0.15
54 0.15
6 -0.79
64 0.15
65 0.15
66 0.15
67 0.15
68 0.15
69 0.45
7 -0.66
8 -0.24
9 -0.66

> <PUBCHEM_EFFECTIVE_ROTOR_COUNT>
7.2

> <PUBCHEM_PHARMACOPHORE_FEATURES>
12
1 12 acceptor
1 3 acceptor
1 35 hydrophobe
1 4 acceptor
1 5 donor
1 9 donor
3 25 31 32 hydrophobe
5 10 12 22 26 30 rings
6 11 19 21 24 27 28 rings
6 34 36 37 38 39 40 rings
6 6 7 13 14 15 16 rings
6 8 9 17 19 21 23 rings

> <PUBCHEM_HEAVY_ATOM_COUNT>
40

> <PUBCHEM_ATOM_DEF_STEREO_COUNT>
1

> <PUBCHEM_ATOM_UDEF_STEREO_COUNT>
0

> <PUBCHEM_BOND_DEF_STEREO_COUNT>
0

> <PUBCHEM_BOND_UDEF_STEREO_COUNT>
0

> <PUBCHEM_ISOTOPIC_ATOM_COUNT>
0

> <PUBCHEM_COMPONENT_COUNT>
1

> <PUBCHEM_CACTVS_TAUTO_COUNT>
-1

> <PUBCHEM_CONFORMER_ID>
08B7602500000001

> <PUBCHEM_MMFF94_ENERGY>
134.5135

> <PUBCHEM_FEATURE_SELFOVERLAP>
60.925

> <PUBCHEM_SHAPE_FINGERPRINT>
10050765 1 18340207505176647448
10119406 146 17984427339376623646
10290309 65 18049167674224206138
10411042 1 18267582605624158307
10483366 6 18341036477024906183
11297750 10 18199176468195518376
11991303 11 18263081015903676639
12160290 23 18341880914417914057
12422481 6 17487363610025842591
12633046 712 17465675880828746691
12788726 201 18267590297862781262
131258 43 17902531598449480622
13140716 1 18342742939834290728
13540713 4 18129646608962414184
13690498 29 18341338881076413950
13692115 27 18199474431514546766
13782708 43 17846780741679617510
140371 6 17688874554458540217
14068700 675 18057884839133653059
14114206 34 17822009852015544385
14118638 360 18264773341315882724
14347332 77 18339363071476849622
14725015 67 18268987751129729578
14856354 85 16734416839895585785
14866123 147 18411986866568589875
15021287 119 17530973471167319524
15131766 46 16083941504917463476
15276724 80 18197505240469810732
15324884 4 17759561814185816155
15439362 3 17835517125035434502
15484559 13 17982721979741143173
15927050 60 18268430122878086703
1813 80 17912377712107241119
19301676 85 17334227732409399942
19301679 30 18268434705460641618
19311894 1 18412829058015494464
20511986 3 17895471420283353792
21033648 29 18122069693377259036
21639891 77 18201718470448851728
21703447 108 18196361736119691688
22223350 30 18343298176021303824
22311459 1 18340209562207454480
23536364 44 18266440148955708095
24771750 20 17471022380213598621
255183 313 18269856262932160105
3103668 31 18335974338370057845
3388396 114 17827658146707142052
3504750 166 18343301504647636822
376196 1 17250054623780537449
4015057 19 17202462473521006096
4409770 3 18335139735445166465
504843 32 18191020110889282621
5080951 261 18201988924523493518
513202 73 18341341083783434059
5171179 24 17986949846103532392
59025328 239 17124761275085737519
6669772 16 18055638304559418311
6677587 24 15945644640544921293
6691757 9 18200878366002631040
6698420 124 17771921432261232384
70251023 43 18053662757231998563
9961470 85 18051406276505912250

> <PUBCHEM_SHAPE_MULTIPOLES>
765.3
14.96
6.85
1.87
38.44
1.04
-0.2
-7.07
0.64
-14.35
-1.94
-1.61
0.35
-0.71

> <PUBCHEM_SHAPE_SELFOVERLAP>
1659.57

> <PUBCHEM_SHAPE_VOLUME>
421.1

> <PUBCHEM_COORDINATE_TYPE>
2
5
10

$$$$
137297882
  -OEChem-05102415023D

 67 71  0     0  0  0  0  0  0999 V2000
   -0.3202   -4.0427    0.6053 Cl  0  0  0  0  0  0  0  0  0  0  0  0
   -2.7507   -3.0630   -2.2890 F   0  0  0  0  0  0  0  0  0  0  0  0
    7.5534   -0.5228    1.5017 O   0  0  0  0  0  0  0  0  0  0  0  0
    0.4006    3.7461   -1.0193 O   0  0  0  0  0  0  0  0  0  0  0  0
   -3.2685   -2.1462    2.3758 O   0  0  0  0  0  0  0  0  0  0  0  0
    2.9674    0.1236   -0.0988 N   0  0  0  0  0  0  0  0  0  0  0  0
    5.7800    0.0269    0.1009 N   0  0  0  0  0  0  0  0  0  0  0  0
   -0.7696    1.7919   -0.6114 N   0  0  0  0  0  0  0  0  0  0  0  0
    1.6286    1.9089   -0.5993 N   0  0  0  0  0  0  0  0  0  0  0  0
    3.7294   -0.4708   -1.1942 C   0  0  0  0  0  0  0  0  0  0  0  0
    3.5788    0.0005    1.2223 C   0  0  0  0  0  0  0  0  0  0  0  0
    5.1446    0.1076   -1.2241 C   0  0  0  0  0  0  0  0  0  0  0  0
    4.9819    0.5976    1.1907 C   0  0  0  0  0  0  0  0  0  0  0  0
    1.7355    0.6511   -0.2785 C   0  0  0  0  0  0  0  0  0  0  0  0
    0.5311   -0.2025   -0.1230 C   0  0  0  0  0  0  0  0  0  0  0  0
   -0.7207    0.3931   -0.3234 C   0  0  0  0  0  0  0  0  0  0  0  0
   -2.0341    2.4581   -0.6987 C   0  0  0  0  0  0  0  0  0  0  0  0
    7.0509   -0.4697    0.3778 C   0  0  0  0  0  0  0  0  0  0  0  0
    0.6339   -1.5712    0.1701 C   0  0  0  0  0  0  0  0  0  0  0  0
   -2.6186    3.0341    0.4294 C   0  0  0  0  0  0  0  0  0  0  0  0
    0.4169    2.5379   -0.7718 C   0  0  0  0  0  0  0  0  0  0  0  0
   -1.8576   -0.4356   -0.2940 C   0  0  0  0  0  0  0  0  0  0  0  0
   -1.9475    2.9757    1.7632 C   0  0  0  0  0  0  0  0  0  0  0  0
   -1.7537   -1.7981   -0.0054 C   0  0  0  0  0  0  0  0  0  0  0  0
   -0.5097   -2.3629    0.2379 C   0  0  0  0  0  0  0  0  0  0  0  0
   -2.6818    2.5270   -1.9321 C   0  0  0  0  0  0  0  0  0  0  0  0
   -3.8510    3.6790    0.3239 C   0  0  0  0  0  0  0  0  0  0  0  0
   -2.9723   -2.5851    0.0309 C   0  0  0  0  0  0  0  0  0  0  0  0
   -2.7774    2.2015    2.8032 C   0  0  0  0  0  0  0  0  0  0  0  0
   -1.5980    4.3734    2.3052 C   0  0  0  0  0  0  0  0  0  0  0  0
    7.8583   -0.9638   -0.7553 C   0  0  0  0  0  0  0  0  0  0  0  0
   -3.9143    3.1719   -2.0376 C   0  0  0  0  0  0  0  0  0  0  0  0
   -4.4989    3.7475   -0.9095 C   0  0  0  0  0  0  0  0  0  0  0  0
   -3.6891   -2.7321    1.2185 C   0  0  0  0  0  0  0  0  0  0  0  0
   -3.4261   -3.1965   -1.1380 C   0  0  0  0  0  0  0  0  0  0  0  0
    8.7386   -1.9436   -0.5402 C   0  0  0  0  0  0  0  0  0  0  0  0
   -4.8598   -3.4904    1.2372 C   0  0  0  0  0  0  0  0  0  0  0  0
   -4.5967   -3.9549   -1.1192 C   0  0  0  0  0  0  0  0  0  0  0  0
   -5.3137   -4.1015    0.0685 C   0  0  0  0  0  0  0  0  0  0  0  0
    3.2389   -0.2870   -2.1573 H   0  0  0  0  0  0  0  0  0  0  0  0
    3.7725   -1.5573   -1.0515 H   0  0  0  0  0  0  0  0  0  0  0  0
    3.6263   -1.0586    1.5020 H   0  0  0  0  0  0  0  0  0  0  0  0
    2.9780    0.5150    1.9813 H   0  0  0  0  0  0  0  0  0  0  0  0
    5.7191   -0.4167   -1.9888 H   0  0  0  0  0  0  0  0  0  0  0  0
    5.1163    1.1695   -1.4964 H   0  0  0  0  0  0  0  0  0  0  0  0
    5.4714    0.4466    2.1579 H   0  0  0  0  0  0  0  0  0  0  0  0
    4.9314    1.6790    1.0138 H   0  0  0  0  0  0  0  0  0  0  0  0
    1.6044   -2.0319    0.3336 H   0  0  0  0  0  0  0  0  0  0  0  0
   -2.8456   -0.0181   -0.4778 H   0  0  0  0  0  0  0  0  0  0  0  0
   -0.9930    2.4437    1.7001 H   0  0  0  0  0  0  0  0  0  0  0  0
   -2.2361    2.0827   -2.8184 H   0  0  0  0  0  0  0  0  0  0  0  0
   -4.3272    4.1353    1.1872 H   0  0  0  0  0  0  0  0  0  0  0  0
   -3.7215    2.7060    3.0349 H   0  0  0  0  0  0  0  0  0  0  0  0
   -2.2187    2.0979    3.7399 H   0  0  0  0  0  0  0  0  0  0  0  0
   -3.0145    1.1948    2.4415 H   0  0  0  0  0  0  0  0  0  0  0  0
   -2.4927    4.9692    2.5153 H   0  0  0  0  0  0  0  0  0  0  0  0
   -0.9861    4.9280    1.5852 H   0  0  0  0  0  0  0  0  0  0  0  0
   -1.0280    4.2920    3.2372 H   0  0  0  0  0  0  0  0  0  0  0  0
    7.7723   -0.5125   -1.7347 H   0  0  0  0  0  0  0  0  0  0  0  0
   -4.4188    3.2255   -2.9979 H   0  0  0  0  0  0  0  0  0  0  0  0
   -5.4586    4.2494   -0.9919 H   0  0  0  0  0  0  0  0  0  0  0  0
    9.3565   -2.3042   -1.3562 H   0  0  0  0  0  0  0  0  0  0  0  0
    8.8685   -2.4171    0.4269 H   0  0  0  0  0  0  0  0  0  0  0  0
   -5.4287   -3.6139    2.1548 H   0  0  0  0  0  0  0  0  0  0  0  0
   -4.9501   -4.4304   -2.0293 H   0  0  0  0  0  0  0  0  0  0  0  0
   -6.2252   -4.6918    0.0828 H   0  0  0  0  0  0  0  0  0  0  0  0
   -3.8953   -2.3603    3.0879 H   0  0  0  0  0  0  0  0  0  0  0  0
  1 25  1  0  0  0  0
  2 35  1  0  0  0  0
  3 18  2  0  0  0  0
  4 21  2  0  0  0  0
  5 34  1  0  0  0  0
  5 67  1  0  0  0  0
  6 10  1  0  0  0  0
  6 11  1  0  0  0  0
  6 14  1  0  0  0  0
  7 12  1  0  0  0  0
  7 13  1  0  0  0  0
  7 18  1  0  0  0  0
  8 16  1  0  0  0  0
  8 17  1  0  0  0  0
  8 21  1  0  0  0  0
  9 14  2  0  0  0  0
  9 21  1  0  0  0  0
 10 12  1  0  0  0  0
 10 40  1  0  0  0  0
 10 41  1  0  0  0  0
 11 13  1  0  0  0  0
 11 42  1  0  0  0  0
 11 43  1  0  0  0  0
 12 44  1  0  0  0  0
 12 45  1  0  0  0  0
 13 46  1  0  0  0  0
 13 47  1  0  0  0  0
 14 15  1  0  0  0  0
 15 16  1  0  0  0  0
 15 19  2  0  0  0  0
 16 22  2  0  0  0  0
 17 20  1  0  0  0  0
 17 26  2  0  0  0  0
 18 31  1  0  0  0  0
 19 25  1  0  0  0  0
 19 48  1  0  0  0  0
 20 23  1  0  0  0  0
 20 27  2  0  0  0  0
 22 24  1  0  0  0  0
 22 49  1  0  0  0  0
 23 29  1  0  0  0  0
 23 30  1  0  0  0  0
 23 50  1  0  0  0  0
 24 25  2  0  0  0  0
 24 28  1  0  0  0  0
 26 32  1  0  0  0  0
 26 51  1  0  0  0  0
 27 33  1  0  0  0  0
 27 52  1  0  0  0  0
 28 34  2  0  0  0  0
 28 35  1  0  0  0  0
 29 53  1  0  0  0  0
 29 54  1  0  0  0  0
 29 55  1  0  0  0  0
 30 56  1  0  0  0  0
 30 57  1  0  0  0  0
 30 58  1  0  0  0  0
 31 36  2  0  0  0  0
 31 59  1  0  0  0  0
 32 33  2  0  0  0  0
 32 60  1  0  0  0  0
 33 61  1  0  0  0  0
 34 37  1  0  0  0  0
 35 38  2  0  0  0  0
 36 62  1  0  0  0  0
 36 63  1  0  0  0  0
 37 39  2  0  0  0  0
 37 64  1  0  0  0  0
 38 39  1  0  0  0  0
 38 65  1  0  0  0  0
 39 66  1  0  0  0  0
M  END
> <PUBCHEM_COMPOUND_CID>
137297882

> <PUBCHEM_CONFORMER_RMSD>
1

> <PUBCHEM_CONFORMER_DIVERSEORDER>
1
10
16
12
2
7
8
5
6
14
9
13
11
4
3
15

> <PUBCHEM_MMFF94_PARTIAL_CHARGES>
48
1 -0.18
10 0.37
11 0.37
12 0.3
13 0.3
14 0.41
15 0.09
16 0.12
17 0.12
18 0.62
19 -0.15
2 -0.19
20 -0.14
21 0.84
22 -0.15
23 0.14
25 0.18
26 -0.15
27 -0.15
3 -0.57
31 -0.14
32 -0.15
33 -0.15
34 0.08
35 0.19
36 -0.3
37 -0.15
38 -0.15
39 -0.15
4 -0.57
48 0.15
49 0.15
5 -0.53
51 0.15
52 0.15
59 0.15
6 -0.79
60 0.15
61 0.15
62 0.15
63 0.15
64 0.15
65 0.15
66 0.15
67 0.45
7 -0.66
8 -0.29
9 -0.66

> <PUBCHEM_EFFECTIVE_ROTOR_COUNT>
7.2

> <PUBCHEM_PHARMACOPHORE_FEATURES>
11
1 3 acceptor
1 36 hydrophobe
1 4 acceptor
1 5 donor
1 9 donor
3 23 29 30 hydrophobe
6 15 16 19 22 24 25 rings
6 17 20 26 27 32 33 rings
6 28 34 35 37 38 39 rings
6 6 7 10 11 12 13 rings
6 8 9 14 15 16 21 rings

> <PUBCHEM_HEAVY_ATOM_COUNT>
39

> <PUBCHEM_ATOM_DEF_STEREO_COUNT>
0

> <PUBCHEM_ATOM_UDEF_STEREO_COUNT>
0

> <PUBCHEM_BOND_DEF_STEREO_COUNT>
0

> <PUBCHEM_BOND_UDEF_STEREO_COUNT>
0

> <PUBCHEM_ISOTOPIC_ATOM_COUNT>
0

> <PUBCHEM_COMPONENT_COUNT>
1

> <PUBCHEM_CACTVS_TAUTO_COUNT>
-1

> <PUBCHEM_CONFORMER_ID>
082EFFDA00000001

> <PUBCHEM_MMFF94_ENERGY>
155.8085

> <PUBCHEM_FEATURE_SELFOVERLAP>
55.846

> <PUBCHEM_SHAPE_FINGERPRINT>
10411042 1 18192150610558724519
11062273 23 18411984659187443435
11331351 85 18200594833646985911
11445158 3 15287084669239552830
11456790 92 18118979212049384691
11991303 11 18115581535569948501
12156800 1 17903032842956173489
12160290 23 18265357078341122461
12440605 4 18262236599643497451
12522641 33 18044087948628372669
12788726 201 18264213680426364006
13140716 1 18264490757968460589
13540713 4 18269539680814215352
13540713 5 18188791542570110956
13692115 27 18337961202361314870
13757389 114 18262800644866294028
13782708 43 18130785681818809278
13911987 19 18044644304936803989
14068700 675 18337669848822738350
14118638 360 18187930651315081876
14674994 50 18413672422726929685
15131766 46 15287931344299837462
15200665 1 18338795619896620088
15276724 80 18266184014391376116
15439362 3 17905041452535239236
15775530 1 17985565363512224622
15927050 60 18192988223264660038
19301679 30 18335991938281983890
19311894 1 18338802213272890480
21639891 77 18413385453622177112
23576562 1 17895198818308443388
244849 19 17488156319428129442
25269216 80 18188792604038748406
283562 15 18408320016580365339
3504750 166 18130792299366789663
4073 2 18343017754207579782
4409770 3 18412260623894828917
469060 322 18261405459067602521
5080951 261 18201431480470368543
508180 173 18050819373714820511
513202 73 18411982485818271966
6677587 24 15872740431275285773

> <PUBCHEM_SHAPE_MULTIPOLES>
759.67
15.63
6.77
1.95
45.05
0.26
-0.64
9.15
0.38
-14.94
-0.25
-1.79
-1.13
0.5

> <PUBCHEM_SHAPE_SELFOVERLAP>
1656.037

> <PUBCHEM_SHAPE_VOLUME>
413.9

> <PUBCHEM_COORDINATE_TYPE>
2
5
10

$$$$
146235843
  -OEChem-05102415023D

 70 74  0     1  0  0  0  0  0999 V2000
    0.3082   -3.9482    0.2549 Cl  0  0  0  0  0  0  0  0  0  0  0  0
   -2.4232   -2.9400   -2.3734 F   0  0  0  0  0  0  0  0  0  0  0  0
    7.4980   -0.8530   -1.0218 O   0  0  0  0  0  0  0  0  0  0  0  0
   -0.2246    3.9505   -0.5266 O   0  0  0  0  0  0  0  0  0  0  0  0
   -2.7143   -2.5434    2.3832 O   0  0  0  0  0  0  0  0  0  0  0  0
    2.9559    0.7328   -0.1409 N   0  0  0  0  0  0  0  0  0  0  0  0
    5.4380   -0.6207    0.0333 N   0  0  0  0  0  0  0  0  0  0  0  0
   -1.0276    1.7884   -0.3284 N   0  0  0  0  0  0  0  0  0  0  0  0
    1.3143    2.3176   -0.3731 N   0  0  0  0  0  0  0  0  0  0  0  0
   -1.7237   -0.5290   -0.1619 N   0  0  0  0  0  0  0  0  0  0  0  0
   -4.4202    2.9012    0.7196 N   0  0  0  0  0  0  0  0  0  0  0  0
   -4.3885    2.6419   -1.6761 N   0  0  0  0  0  0  0  0  0  0  0  0
    3.7607    0.5740   -1.3598 C   0  0  2  0  0  0  0  0  0  0  0  0
    4.6935   -0.6329   -1.2253 C   0  0  0  0  0  0  0  0  0  0  0  0
    3.6607    0.6974    1.1410 C   0  0  0  0  0  0  0  0  0  0  0  0
    4.5995   -0.5029    1.2307 C   0  0  0  0  0  0  0  0  0  0  0  0
    1.6444    1.0690   -0.2068 C   0  0  0  0  0  0  0  0  0  0  0  0
    4.5262    1.8626   -1.6622 C   0  0  0  0  0  0  0  0  0  0  0  0
    0.6062    0.0188   -0.0991 C   0  0  0  0  0  0  0  0  0  0  0  0
    6.8236   -0.7562    0.0050 C   0  0  0  0  0  0  0  0  0  0  0  0
   -0.7299    0.3984   -0.1752 C   0  0  0  0  0  0  0  0  0  0  0  0
    0.9215   -1.3373    0.0384 C   0  0  0  0  0  0  0  0  0  0  0  0
    0.0057    2.7430   -0.4300 C   0  0  0  0  0  0  0  0  0  0  0  0
   -2.4058    2.1890   -0.3888 C   0  0  0  0  0  0  0  0  0  0  0  0
   -3.1261    2.5203    0.7407 C   0  0  0  0  0  0  0  0  0  0  0  0
    7.5385   -0.7904    1.2964 C   0  0  0  0  0  0  0  0  0  0  0  0
   -0.0938   -2.2825    0.0803 C   0  0  0  0  0  0  0  0  0  0  0  0
   -2.4880    2.4746    2.0907 C   0  0  0  0  0  0  0  0  0  0  0  0
   -1.3913   -1.8310   -0.0282 C   0  0  0  0  0  0  0  0  0  0  0  0
   -3.0954    2.2689   -1.5814 C   0  0  0  0  0  0  0  0  0  0  0  0
   -2.5344   -2.7175   -0.0077 C   0  0  0  0  0  0  0  0  0  0  0  0
   -3.1606    1.4501    3.0226 C   0  0  0  0  0  0  0  0  0  0  0  0
   -2.4513    3.8561    2.7692 C   0  0  0  0  0  0  0  0  0  0  0  0
   -2.4219    1.9364   -2.8730 C   0  0  0  0  0  0  0  0  0  0  0  0
    8.7872   -0.3231    1.3547 C   0  0  0  0  0  0  0  0  0  0  0  0
   -4.9813    2.9396   -0.5041 C   0  0  0  0  0  0  0  0  0  0  0  0
   -3.1585   -3.0454    1.1956 C   0  0  0  0  0  0  0  0  0  0  0  0
   -3.0116   -3.2454   -1.2076 C   0  0  0  0  0  0  0  0  0  0  0  0
   -4.2600   -3.9013    1.1994 C   0  0  0  0  0  0  0  0  0  0  0  0
   -4.1130   -4.1011   -1.2037 C   0  0  0  0  0  0  0  0  0  0  0  0
   -4.7372   -4.4291   -0.0002 C   0  0  0  0  0  0  0  0  0  0  0  0
    3.0936    0.3806   -2.2104 H   0  0  0  0  0  0  0  0  0  0  0  0
    4.1045   -1.5587   -1.2257 H   0  0  0  0  0  0  0  0  0  0  0  0
    5.3702   -0.6890   -2.0845 H   0  0  0  0  0  0  0  0  0  0  0  0
    2.9482    0.6577    1.9738 H   0  0  0  0  0  0  0  0  0  0  0  0
    4.2316    1.6263    1.2565 H   0  0  0  0  0  0  0  0  0  0  0  0
    5.1901   -0.4124    2.1431 H   0  0  0  0  0  0  0  0  0  0  0  0
    4.0250   -1.4333    1.3059 H   0  0  0  0  0  0  0  0  0  0  0  0
    5.2364    2.1158   -0.8684 H   0  0  0  0  0  0  0  0  0  0  0  0
    3.8401    2.7089   -1.7731 H   0  0  0  0  0  0  0  0  0  0  0  0
    5.0900    1.7646   -2.5959 H   0  0  0  0  0  0  0  0  0  0  0  0
    1.9545   -1.6644    0.1003 H   0  0  0  0  0  0  0  0  0  0  0  0
    7.0797   -1.2285    2.1726 H   0  0  0  0  0  0  0  0  0  0  0  0
   -1.4415    2.1602    2.0212 H   0  0  0  0  0  0  0  0  0  0  0  0
   -4.2027    1.7178    3.2293 H   0  0  0  0  0  0  0  0  0  0  0  0
   -3.1551    0.4523    2.5704 H   0  0  0  0  0  0  0  0  0  0  0  0
   -2.6315    1.3900    3.9796 H   0  0  0  0  0  0  0  0  0  0  0  0
   -3.4605    4.2367    2.9617 H   0  0  0  0  0  0  0  0  0  0  0  0
   -1.9222    3.8041    3.7268 H   0  0  0  0  0  0  0  0  0  0  0  0
   -1.9334    4.5853    2.1363 H   0  0  0  0  0  0  0  0  0  0  0  0
   -3.1058    2.0800   -3.7167 H   0  0  0  0  0  0  0  0  0  0  0  0
   -1.5564    2.5855   -3.0388 H   0  0  0  0  0  0  0  0  0  0  0  0
   -2.1004    0.8904   -2.8855 H   0  0  0  0  0  0  0  0  0  0  0  0
    9.3362   -0.3621    2.2899 H   0  0  0  0  0  0  0  0  0  0  0  0
    9.2937    0.1121    0.5001 H   0  0  0  0  0  0  0  0  0  0  0  0
   -6.0202    3.2422   -0.5505 H   0  0  0  0  0  0  0  0  0  0  0  0
   -4.7567   -4.1658    2.1291 H   0  0  0  0  0  0  0  0  0  0  0  0
   -4.4844   -4.5120   -2.1379 H   0  0  0  0  0  0  0  0  0  0  0  0
   -5.5948   -5.0955    0.0025 H   0  0  0  0  0  0  0  0  0  0  0  0
   -3.2751   -2.8812    3.1023 H   0  0  0  0  0  0  0  0  0  0  0  0
  1 27  1  0  0  0  0
  2 38  1  0  0  0  0
  3 20  2  0  0  0  0
  4 23  2  0  0  0  0
  5 37  1  0  0  0  0
  5 70  1  0  0  0  0
  6 13  1  0  0  0  0
  6 15  1  0  0  0  0
  6 17  1  0  0  0  0
  7 14  1  0  0  0  0
  7 16  1  0  0  0  0
  7 20  1  0  0  0  0
  8 21  1  0  0  0  0
  8 23  1  0  0  0  0
  8 24  1  0  0  0  0
  9 17  2  0  0  0  0
  9 23  1  0  0  0  0
 10 21  2  0  0  0  0
 10 29  1  0  0  0  0
 11 25  2  0  0  0  0
 11 36  1  0  0  0  0
 12 30  1  0  0  0  0
 12 36  2  0  0  0  0
 13 14  1  0  0  0  0
 13 18  1  0  0  0  0
 13 42  1  0  0  0  0
 14 43  1  0  0  0  0
 14 44  1  0  0  0  0
 15 16  1  0  0  0  0
 15 45  1  0  0  0  0
 15 46  1  0  0  0  0
 16 47  1  0  0  0  0
 16 48  1  0  0  0  0
 17 19  1  0  0  0  0
 18 49  1  0  0  0  0
 18 50  1  0  0  0  0
 18 51  1  0  0  0  0
 19 21  1  0  0  0  0
 19 22  2  0  0  0  0
 20 26  1  0  0  0  0
 22 27  1  0  0  0  0
 22 52  1  0  0  0  0
 24 25  1  0  0  0  0
 24 30  2  0  0  0  0
 25 28  1  0  0  0  0
 26 35  2  0  0  0  0
 26 53  1  0  0  0  0
 27 29  2  0  0  0  0
 28 32  1  0  0  0  0
 28 33  1  0  0  0  0
 28 54  1  0  0  0  0
 29 31  1  0  0  0  0
 30 34  1  0  0  0  0
 31 37  2  0  0  0  0
 31 38  1  0  0  0  0
 32 55  1  0  0  0  0
 32 56  1  0  0  0  0
 32 57  1  0  0  0  0
 33 58  1  0  0  0  0
 33 59  1  0  0  0  0
 33 60  1  0  0  0  0
 34 61  1  0  0  0  0
 34 62  1  0  0  0  0
 34 63  1  0  0  0  0
 35 64  1  0  0  0  0
 35 65  1  0  0  0  0
 36 66  1  0  0  0  0
 37 39  1  0  0  0  0
 38 40  2  0  0  0  0
 39 41  2  0  0  0  0
 39 67  1  0  0  0  0
 40 41  1  0  0  0  0
 40 68  1  0  0  0  0
 41 69  1  0  0  0  0
M  END
> <PUBCHEM_COMPOUND_CID>
146235843

> <PUBCHEM_CONFORMER_RMSD>
1

> <PUBCHEM_CONFORMER_DIVERSEORDER>
1
39
21
8
34
20
27
12
28
24
37
32
22
31
25
19
17
30
36
11
4
38
9
14
33
29
23
40
16
7
26
2
35
15
3
18
5
10
13
6

> <PUBCHEM_MMFF94_PARTIAL_CHARGES>
46
1 -0.18
10 -0.62
11 -0.62
12 -0.62
13 0.37
14 0.3
15 0.37
16 0.3
17 0.41
19 0.09
2 -0.19
20 0.62
21 0.43
22 -0.15
23 0.84
24 0.12
25 0.17
26 -0.14
27 0.18
28 0.14
29 0.31
3 -0.57
30 0.17
34 0.14
35 -0.3
36 0.47
37 0.08
38 0.19
39 -0.15
4 -0.57
40 -0.15
41 -0.15
5 -0.53
52 0.15
53 0.15
6 -0.79
64 0.15
65 0.15
66 0.15
67 0.15
68 0.15
69 0.15
7 -0.66
70 0.45
8 -0.29
9 -0.66

> <PUBCHEM_EFFECTIVE_ROTOR_COUNT>
7.2

> <PUBCHEM_PHARMACOPHORE_FEATURES>
13
1 11 acceptor
1 3 acceptor
1 35 hydrophobe
1 4 acceptor
1 5 donor
1 9 donor
3 11 12 36 cation
3 28 32 33 hydrophobe
6 10 19 21 22 27 29 rings
6 11 12 24 25 30 36 rings
6 31 37 38 39 40 41 rings
6 6 7 13 14 15 16 rings
6 8 9 17 19 21 23 rings

> <PUBCHEM_HEAVY_ATOM_COUNT>
41

> <PUBCHEM_ATOM_DEF_STEREO_COUNT>
1

> <PUBCHEM_ATOM_UDEF_STEREO_COUNT>
0

> <PUBCHEM_BOND_DEF_STEREO_COUNT>
0

> <PUBCHEM_BOND_UDEF_STEREO_COUNT>
0

> <PUBCHEM_ISOTOPIC_ATOM_COUNT>
0

> <PUBCHEM_COMPONENT_COUNT>
1

> <PUBCHEM_CACTVS_TAUTO_COUNT>
-1

> <PUBCHEM_CONFORMER_ID>
08B761C300000001

> <PUBCHEM_MMFF94_ENERGY>
152.7279

> <PUBCHEM_FEATURE_SELFOVERLAP>
65.999

> <PUBCHEM_SHAPE_FINGERPRINT>
10050765 1 18336263561204779476
10119406 146 18124878958998558806
11007060 377 18271801260099537792
11991303 11 18260264114880161925
12156800 1 17976219656894631777
12160290 23 18411140259720802485
12440605 4 18118141361569281912
12633046 712 17631755793606484284
12655364 131 17694219963396693306
12788726 201 18195252332575564742
131258 38 17257673629491773347
13140716 1 18410293627304749944
13540713 5 18189349003713407948
13583140 156 16878516622345892900
13692114 37 18201727215582384529
13692115 27 18266182901478082862
13782708 43 18060136575082134686
13911987 19 18044641015292301621
14068700 675 18269270338655515423
14118638 360 18189338047589095092
14674994 50 18273212028391623079
14866123 147 18408042922670509723
15021287 119 17167867448459707708
15131766 46 15794023344447468620
15219462 58 16126721157449834356
15439362 3 17978222756189230486
15484559 13 18050830149470982381
15927050 60 18265892454346683663
19301679 30 18265622154642944011
19311894 1 18409736131896153292
21639891 77 18342173401184597320
21703447 108 18192137425283224664
22223350 30 18411410722423108704
22311459 1 18264203622051332916
23559900 14 18341603812224806324
244849 19 17273673503623630322
283562 15 18337111297142953995
3383291 50 18272929414890214455
3504750 166 18343020016938946454
4073 2 18273210873319817742
4616759 239 18130773526791713546
484985 159 18260265265562612155
5080951 261 18339627993549121518
508180 173 18053915594158428191
513202 73 18336272343885359367
5171179 24 18198617941873574601
6376802 137 17560794459959025537
6669772 16 18193555554221854223
6691757 9 18270964540097738896
6698420 124 18057050094621801096
70251023 43 18049442835836212331

> <PUBCHEM_SHAPE_MULTIPOLES>
785.88
15.03
6.19
2.24
39.33
2.85
-0.57
4.68
-2.35
-13.05
-0.36
-1.79
-1.31
-0.98

> <PUBCHEM_SHAPE_SELFOVERLAP>
1706.635

> <PUBCHEM_SHAPE_VOLUME>
431.6

> <PUBCHEM_COORDINATE_TYPE>
2
5
10

$$$$
146235592
  -OEChem-05102415023D

 66 70  0     1  0  0  0  0  0999 V2000
    0.0429   -3.9291   -0.4171 Cl  0  0  0  0  0  0  0  0  0  0  0  0
   -2.7221   -3.0716    2.2246 F   0  0  0  0  0  0  0  0  0  0  0  0
    7.1964   -0.6616   -1.4379 O   0  0  0  0  0  0  0  0  0  0  0  0
   -0.3249    3.9055    0.9131 O   0  0  0  0  0  0  0  0  0  0  0  0
   -2.8967   -2.2785   -2.4880 O   0  0  0  0  0  0  0  0  0  0  0  0
    2.7836    0.6748    0.1934 N   0  0  0  0  0  0  0  0  0  0  0  0
    5.2323   -0.6955   -0.1922 N   0  0  0  0  0  0  0  0  0  0  0  0
   -1.1710    1.7716    0.6136 N   0  0  0  0  0  0  0  0  0  0  0  0
    1.1744    2.2775    0.5134 N   0  0  0  0  0  0  0  0  0  0  0  0
   -3.1469    3.0899   -0.0456 N   0  0  0  0  0  0  0  0  0  0  0  0
   -1.9174   -0.5048    0.2347 N   0  0  0  0  0  0  0  0  0  0  0  0
   -4.4284    3.3361    0.2757 N   0  0  0  0  0  0  0  0  0  0  0  0
    3.4861    0.8312   -1.0874 C   0  0  2  0  0  0  0  0  0  0  0  0
    4.3920   -0.3761   -1.3456 C   0  0  0  0  0  0  0  0  0  0  0  0
    3.5848    0.3037    1.3603 C   0  0  0  0  0  0  0  0  0  0  0  0
    4.4933   -0.8857    1.0601 C   0  0  0  0  0  0  0  0  0  0  0  0
    1.4809    1.0261    0.3248 C   0  0  0  0  0  0  0  0  0  0  0  0
    4.2619    2.1486   -1.1100 C   0  0  0  0  0  0  0  0  0  0  0  0
    0.4250   -0.0088    0.2439 C   0  0  0  0  0  0  0  0  0  0  0  0
    6.6071   -0.8291   -0.3688 C   0  0  0  0  0  0  0  0  0  0  0  0
   -0.9017    0.3873    0.3786 C   0  0  0  0  0  0  0  0  0  0  0  0
   -0.1222    2.7125    0.6762 C   0  0  0  0  0  0  0  0  0  0  0  0
    0.7115   -1.3564    0.0011 C   0  0  0  0  0  0  0  0  0  0  0  0
   -2.5378    2.1841    0.7724 C   0  0  0  0  0  0  0  0  0  0  0  0
   -2.5611    3.7770   -1.1737 C   0  0  0  0  0  0  0  0  0  0  0  0
    7.4192   -1.2016    0.8067 C   0  0  0  0  0  0  0  0  0  0  0  0
   -0.3238   -2.2729   -0.1181 C   0  0  0  0  0  0  0  0  0  0  0  0
   -1.6125   -1.7994    0.0008 C   0  0  0  0  0  0  0  0  0  0  0  0
   -3.4869    1.8119    1.6928 C   0  0  0  0  0  0  0  0  0  0  0  0
   -2.5369    5.2926   -0.9599 C   0  0  0  0  0  0  0  0  0  0  0  0
   -3.2747    3.4218   -2.4807 C   0  0  0  0  0  0  0  0  0  0  0  0
   -2.7755   -2.6518   -0.1162 C   0  0  0  0  0  0  0  0  0  0  0  0
   -4.6304    2.5527    1.3385 C   0  0  0  0  0  0  0  0  0  0  0  0
    8.6814   -0.7743    0.8800 C   0  0  0  0  0  0  0  0  0  0  0  0
   -3.3802   -2.8638   -1.3551 C   0  0  0  0  0  0  0  0  0  0  0  0
   -3.2915   -3.2646    1.0257 C   0  0  0  0  0  0  0  0  0  0  0  0
   -4.5008   -3.6885   -1.4522 C   0  0  0  0  0  0  0  0  0  0  0  0
   -4.4121   -4.0894    0.9286 C   0  0  0  0  0  0  0  0  0  0  0  0
   -5.0169   -4.3014   -0.3103 C   0  0  0  0  0  0  0  0  0  0  0  0
    2.7496    0.8694   -1.9010 H   0  0  0  0  0  0  0  0  0  0  0  0
    3.7788   -1.2659   -1.5357 H   0  0  0  0  0  0  0  0  0  0  0  0
    4.9978   -0.2127   -2.2432 H   0  0  0  0  0  0  0  0  0  0  0  0
    2.9385    0.0548    2.2107 H   0  0  0  0  0  0  0  0  0  0  0  0
    4.1890    1.1668    1.6635 H   0  0  0  0  0  0  0  0  0  0  0  0
    5.1555   -1.0388    1.9131 H   0  0  0  0  0  0  0  0  0  0  0  0
    3.9003   -1.7996    0.9405 H   0  0  0  0  0  0  0  0  0  0  0  0
    5.0387    2.1825   -0.3392 H   0  0  0  0  0  0  0  0  0  0  0  0
    3.5935    2.9997   -0.9423 H   0  0  0  0  0  0  0  0  0  0  0  0
    4.7483    2.2915   -2.0808 H   0  0  0  0  0  0  0  0  0  0  0  0
    1.7364   -1.6957   -0.1095 H   0  0  0  0  0  0  0  0  0  0  0  0
   -1.5306    3.4375   -1.2983 H   0  0  0  0  0  0  0  0  0  0  0  0
    7.0178   -1.8483    1.5754 H   0  0  0  0  0  0  0  0  0  0  0  0
   -3.3715    1.1085    2.5047 H   0  0  0  0  0  0  0  0  0  0  0  0
   -3.5494    5.7117   -0.9458 H   0  0  0  0  0  0  0  0  0  0  0  0
   -2.0602    5.5596   -0.0118 H   0  0  0  0  0  0  0  0  0  0  0  0
   -1.9845    5.7857   -1.7669 H   0  0  0  0  0  0  0  0  0  0  0  0
   -4.3159    3.7630   -2.4804 H   0  0  0  0  0  0  0  0  0  0  0  0
   -2.7703    3.8853   -3.3352 H   0  0  0  0  0  0  0  0  0  0  0  0
   -3.2801    2.3376   -2.6393 H   0  0  0  0  0  0  0  0  0  0  0  0
   -5.6023    2.5542    1.8106 H   0  0  0  0  0  0  0  0  0  0  0  0
    9.3002   -1.0580    1.7251 H   0  0  0  0  0  0  0  0  0  0  0  0
    9.1319   -0.1364    0.1275 H   0  0  0  0  0  0  0  0  0  0  0  0
   -4.9825   -3.8633   -2.4105 H   0  0  0  0  0  0  0  0  0  0  0  0
   -4.8136   -4.5665    1.8177 H   0  0  0  0  0  0  0  0  0  0  0  0
   -5.8894   -4.9437   -0.3857 H   0  0  0  0  0  0  0  0  0  0  0  0
   -3.4472   -2.5444   -3.2443 H   0  0  0  0  0  0  0  0  0  0  0  0
  1 27  1  0  0  0  0
  2 36  1  0  0  0  0
  3 20  2  0  0  0  0
  4 22  2  0  0  0  0
  5 35  1  0  0  0  0
  5 66  1  0  0  0  0
  6 13  1  0  0  0  0
  6 15  1  0  0  0  0
  6 17  1  0  0  0  0
  7 14  1  0  0  0  0
  7 16  1  0  0  0  0
  7 20  1  0  0  0  0
  8 21  1  0  0  0  0
  8 22  1  0  0  0  0
  8 24  1  0  0  0  0
  9 17  2  0  0  0  0
  9 22  1  0  0  0  0
 10 12  1  0  0  0  0
 10 24  1  0  0  0  0
 10 25  1  0  0  0  0
 11 21  2  0  0  0  0
 11 28  1  0  0  0  0
 12 33  2  0  0  0  0
 13 14  1  0  0  0  0
 13 18  1  0  0  0  0
 13 40  1  0  0  0  0
 14 41  1  0  0  0  0
 14 42  1  0  0  0  0
 15 16  1  0  0  0  0
 15 43  1  0  0  0  0
 15 44  1  0  0  0  0
 16 45  1  0  0  0  0
 16 46  1  0  0  0  0
 17 19  1  0  0  0  0
 18 47  1  0  0  0  0
 18 48  1  0  0  0  0
 18 49  1  0  0  0  0
 19 21  1  0  0  0  0
 19 23  2  0  0  0  0
 20 26  1  0  0  0  0
 23 27  1  0  0  0  0
 23 50  1  0  0  0  0
 24 29  2  0  0  0  0
 25 30  1  0  0  0  0
 25 31  1  0  0  0  0
 25 51  1  0  0  0  0
 26 34  2  0  0  0  0
 26 52  1  0  0  0  0
 27 28  2  0  0  0  0
 28 32  1  0  0  0  0
 29 33  1  0  0  0  0
 29 53  1  0  0  0  0
 30 54  1  0  0  0  0
 30 55  1  0  0  0  0
 30 56  1  0  0  0  0
 31 57  1  0  0  0  0
 31 58  1  0  0  0  0
 31 59  1  0  0  0  0
 32 35  2  0  0  0  0
 32 36  1  0  0  0  0
 33 60  1  0  0  0  0
 34 61  1  0  0  0  0
 34 62  1  0  0  0  0
 35 37  1  0  0  0  0
 36 38  2  0  0  0  0
 37 39  2  0  0  0  0
 37 63  1  0  0  0  0
 38 39  1  0  0  0  0
 38 64  1  0  0  0  0
 39 65  1  0  0  0  0
M  END
> <PUBCHEM_COMPOUND_CID>
146235592

> <PUBCHEM_CONFORMER_RMSD>
1

> <PUBCHEM_CONFORMER_DIVERSEORDER>
1
25
43
50
36
21
32
48
24
46
28
27
26
35
44
22
16
39
40
2
38
19
49
30
42
17
5
31
51
4
47
41
29
37
11
33
9
14
20
34
12
6
18
23
3
45
13
10
15
7
8

> <PUBCHEM_MMFF94_PARTIAL_CHARGES>
45
1 -0.18
10 0.31
11 -0.62
12 -0.71
13 0.37
14 0.3
15 0.37
16 0.3
17 0.41
19 0.09
2 -0.19
20 0.62
21 0.43
22 0.84
23 -0.15
24 -0.09
25 0.26
26 -0.14
27 0.18
28 0.31
29 -0.15
3 -0.57
33 0.14
34 -0.3
35 0.08
36 0.19
37 -0.15
38 -0.15
39 -0.15
4 -0.57
5 -0.53
50 0.15
52 0.15
53 0.15
6 -0.79
60 0.15
61 0.15
62 0.15
63 0.15
64 0.15
65 0.15
66 0.45
7 -0.66
8 -0.24
9 -0.66

> <PUBCHEM_EFFECTIVE_ROTOR_COUNT>
7.2

> <PUBCHEM_PHARMACOPHORE_FEATURES>
12
1 12 acceptor
1 3 acceptor
1 34 hydrophobe
1 4 acceptor
1 5 donor
1 9 donor
3 25 30 31 hydrophobe
5 10 12 24 29 33 rings
6 11 19 21 23 27 28 rings
6 32 35 36 37 38 39 rings
6 6 7 13 14 15 16 rings
6 8 9 17 19 21 22 rings

> <PUBCHEM_HEAVY_ATOM_COUNT>
39

> <PUBCHEM_ATOM_DEF_STEREO_COUNT>
1

> <PUBCHEM_ATOM_UDEF_STEREO_COUNT>
0

> <PUBCHEM_BOND_DEF_STEREO_COUNT>
0

> <PUBCHEM_BOND_UDEF_STEREO_COUNT>
0

> <PUBCHEM_ISOTOPIC_ATOM_COUNT>
0

> <PUBCHEM_COMPONENT_COUNT>
1

> <PUBCHEM_CACTVS_TAUTO_COUNT>
-1

> <PUBCHEM_CONFORMER_ID>
08B760C800000001

> <PUBCHEM_MMFF94_ENERGY>
133.5994

> <PUBCHEM_FEATURE_SELFOVERLAP>
60.925

> <PUBCHEM_SHAPE_FINGERPRINT>
10050765 1 18340208600372221960
10119406 146 17984146959569113638
10290309 65 18049729520455376459
10411042 1 18267865175870257547
11297750 10 18199459038336161536
11991303 11 18263083214963848901
12160290 23 18341316865016240001
12422481 6 17487925460483427943
12440605 4 18339082566709795411
12788726 201 18267028443178716098
131258 43 17902251218631421134
13140716 1 18342460356766599704
13540713 4 18129929179129411616
13690498 29 18341622550755013086
13692115 27 18270970170757626762
13757389 114 18265063448291180884
13782708 43 17775004618312889910
140371 6 17688310505114914433
14279260 333 18340759364801876223
14347332 77 18339082691679863142
14725015 67 18341046440537292386
14856354 85 16589458317827160864
14866123 147 18411986862357966699
15021287 119 17458072543078806788
15042514 8 18411990164744543257
15131766 46 16011885001848720972
15276724 80 18197506335660123372
15439362 3 17835799695186614086
15484559 13 17693372240268982853
15927050 60 18196373624109547323
1813 80 17912660282321698191
19301676 85 17334228827578581126
19301679 30 18268154329926967538
19311894 1 18411703149592648184
20511986 3 17895753990460887712
21639891 77 18201718466148596720
21703447 108 18268420425369024856
22223350 30 18343298175984419576
22311459 1 18268434538331262224
23536364 44 18338498838236637735
244849 19 16844706717042722682
24771750 20 17471024574978829573
255183 313 18269857362491306201
3103668 31 18335975433618431709
3388396 114 17827659246202952028
3504750 166 18343301496099835302
376196 1 17322396991324739233
397830 11 18059848503098480816
4015057 19 17274520063221801224
4409770 3 18336264544472338513
504843 32 18190458256142056645
5080951 261 18201427069686466894
513202 73 18341341079493709123
5171179 24 17987231316658655784
59025328 239 17197100339858123799
6669772 16 17983581805775009151
6677587 24 15945082790140076981
6691757 9 18200315407438221648
6698420 124 17771639952963258648
70251023 43 18124596650343985619
9961470 85 18051407375991127330

> <PUBCHEM_SHAPE_MULTIPOLES>
744.72
15.06
7
1.69
36.37
2.01
-0.47
-7.86
0.06
-15.11
-1.26
-1.1
0.21
-0.53

> <PUBCHEM_SHAPE_SELFOVERLAP>
1617.01

> <PUBCHEM_SHAPE_VOLUME>
408.7

> <PUBCHEM_COORDINATE_TYPE>
2
5
10

$$$$
137278711
  -OEChem-05102415023D

 71 75  0     1  0  0  0  0  0999 V2000
    0.2459   -3.5711   -0.0637 F   0  0  0  0  0  0  0  0  0  0  0  0
   -1.7484   -3.5164   -2.1027 F   0  0  0  0  0  0  0  0  0  0  0  0
    7.4594   -0.3715   -1.2239 O   0  0  0  0  0  0  0  0  0  0  0  0
   -0.2833    3.9739    0.4588 O   0  0  0  0  0  0  0  0  0  0  0  0
   -3.2700   -2.0456    2.1857 O   0  0  0  0  0  0  0  0  0  0  0  0
    2.9421    0.7967    0.1164 N   0  0  0  0  0  0  0  0  0  0  0  0
    5.4446   -0.4899   -0.0725 N   0  0  0  0  0  0  0  0  0  0  0  0
   -1.0533    1.7932    0.3562 N   0  0  0  0  0  0  0  0  0  0  0  0
    1.2761    2.3670    0.2479 N   0  0  0  0  0  0  0  0  0  0  0  0
   -1.7176   -0.5333    0.1906 N   0  0  0  0  0  0  0  0  0  0  0  0
   -4.4905    2.7864   -0.6663 N   0  0  0  0  0  0  0  0  0  0  0  0
    3.6690    0.8464   -1.1636 C   0  0  2  0  0  0  0  0  0  0  0  0
    4.6327   -0.3432   -1.2805 C   0  0  0  0  0  0  0  0  0  0  0  0
    3.7341    0.5681    1.3299 C   0  0  0  0  0  0  0  0  0  0  0  0
    4.6469   -0.6393    1.1491 C   0  0  0  0  0  0  0  0  0  0  0  0
    1.6267    1.1142    0.1888 C   0  0  0  0  0  0  0  0  0  0  0  0
    4.3899    2.1873   -1.3100 C   0  0  0  0  0  0  0  0  0  0  0  0
    0.6068    0.0409    0.1913 C   0  0  0  0  0  0  0  0  0  0  0  0
    6.8314   -0.5013   -0.1718 C   0  0  0  0  0  0  0  0  0  0  0  0
   -0.7345    0.4028    0.2635 C   0  0  0  0  0  0  0  0  0  0  0  0
   -2.4356    2.1723    0.4495 C   0  0  0  0  0  0  0  0  0  0  0  0
   -0.0371    2.7712    0.3440 C   0  0  0  0  0  0  0  0  0  0  0  0
    0.9416   -1.3133    0.0866 C   0  0  0  0  0  0  0  0  0  0  0  0
   -3.1876    2.4262   -0.6862 C   0  0  0  0  0  0  0  0  0  0  0  0
   -2.5742    2.3106   -2.0442 C   0  0  0  0  0  0  0  0  0  0  0  0
    7.6081   -0.6756    1.0713 C   0  0  0  0  0  0  0  0  0  0  0  0
   -0.0609   -2.2719    0.0400 C   0  0  0  0  0  0  0  0  0  0  0  0
   -3.0610    2.2959    1.6853 C   0  0  0  0  0  0  0  0  0  0  0  0
   -1.3664   -1.8333    0.0899 C   0  0  0  0  0  0  0  0  0  0  0  0
   -3.2465    1.2223   -2.9001 C   0  0  0  0  0  0  0  0  0  0  0  0
   -2.5741    3.6501   -2.8026 C   0  0  0  0  0  0  0  0  0  0  0  0
   -4.4003    2.6644    1.7466 C   0  0  0  0  0  0  0  0  0  0  0  0
   -2.4725   -2.7587    0.0329 C   0  0  0  0  0  0  0  0  0  0  0  0
   -2.3230    2.0382    2.9582 C   0  0  0  0  0  0  0  0  0  0  0  0
   -5.0645    2.8964    0.5529 C   0  0  0  0  0  0  0  0  0  0  0  0
    8.7976   -1.2777    1.0088 C   0  0  0  0  0  0  0  0  0  0  0  0
   -3.3899   -2.8357    1.0808 C   0  0  0  0  0  0  0  0  0  0  0  0
   -2.6197   -3.5798   -1.0850 C   0  0  0  0  0  0  0  0  0  0  0  0
   -4.4550   -3.7339    1.0106 C   0  0  0  0  0  0  0  0  0  0  0  0
   -3.6847   -4.4781   -1.1552 C   0  0  0  0  0  0  0  0  0  0  0  0
   -4.6024   -4.5549   -0.1074 C   0  0  0  0  0  0  0  0  0  0  0  0
    2.9496    0.7676   -1.9894 H   0  0  0  0  0  0  0  0  0  0  0  0
    4.0657   -1.2754   -1.3951 H   0  0  0  0  0  0  0  0  0  0  0  0
    5.2621   -0.2405   -2.1707 H   0  0  0  0  0  0  0  0  0  0  0  0
    3.0773    0.3968    2.1911 H   0  0  0  0  0  0  0  0  0  0  0  0
    4.3254    1.4646    1.5490 H   0  0  0  0  0  0  0  0  0  0  0  0
    5.2632   -0.7721    2.0384 H   0  0  0  0  0  0  0  0  0  0  0  0
    4.0593   -1.5577    1.0377 H   0  0  0  0  0  0  0  0  0  0  0  0
    5.1432    2.3376   -0.5299 H   0  0  0  0  0  0  0  0  0  0  0  0
    3.6822    3.0208   -1.2495 H   0  0  0  0  0  0  0  0  0  0  0  0
    4.8958    2.2479   -2.2794 H   0  0  0  0  0  0  0  0  0  0  0  0
    1.9721   -1.6431    0.0217 H   0  0  0  0  0  0  0  0  0  0  0  0
   -1.5214    2.0181   -1.9817 H   0  0  0  0  0  0  0  0  0  0  0  0
    7.2472   -0.2831    2.0122 H   0  0  0  0  0  0  0  0  0  0  0  0
   -2.7360    1.1159   -3.8632 H   0  0  0  0  0  0  0  0  0  0  0  0
   -3.2141    0.2521   -2.3922 H   0  0  0  0  0  0  0  0  0  0  0  0
   -4.2972    1.4599   -3.1002 H   0  0  0  0  0  0  0  0  0  0  0  0
   -2.0564    4.4233   -2.2241 H   0  0  0  0  0  0  0  0  0  0  0  0
   -2.0630    3.5503   -3.7662 H   0  0  0  0  0  0  0  0  0  0  0  0
   -3.5931    4.0028   -2.9966 H   0  0  0  0  0  0  0  0  0  0  0  0
   -4.9236    2.7705    2.6907 H   0  0  0  0  0  0  0  0  0  0  0  0
   -1.4467    2.6896    3.0373 H   0  0  0  0  0  0  0  0  0  0  0  0
   -2.9485    2.2338    3.8362 H   0  0  0  0  0  0  0  0  0  0  0  0
   -2.0042    0.9923    3.0129 H   0  0  0  0  0  0  0  0  0  0  0  0
   -6.1101    3.1859    0.5460 H   0  0  0  0  0  0  0  0  0  0  0  0
    9.3932   -1.3934    1.9086 H   0  0  0  0  0  0  0  0  0  0  0  0
    9.2089   -1.6751    0.0874 H   0  0  0  0  0  0  0  0  0  0  0  0
   -5.1777   -3.8052    1.8191 H   0  0  0  0  0  0  0  0  0  0  0  0
   -3.7997   -5.1169   -2.0258 H   0  0  0  0  0  0  0  0  0  0  0  0
   -5.4316   -5.2541   -0.1623 H   0  0  0  0  0  0  0  0  0  0  0  0
   -3.9994   -2.2411    2.7986 H   0  0  0  0  0  0  0  0  0  0  0  0
  1 27  1  0  0  0  0
  2 38  1  0  0  0  0
  3 19  2  0  0  0  0
  4 22  2  0  0  0  0
  5 37  1  0  0  0  0
  5 71  1  0  0  0  0
  6 12  1  0  0  0  0
  6 14  1  0  0  0  0
  6 16  1  0  0  0  0
  7 13  1  0  0  0  0
  7 15  1  0  0  0  0
  7 19  1  0  0  0  0
  8 20  1  0  0  0  0
  8 21  1  0  0  0  0
  8 22  1  0  0  0  0
  9 16  2  0  0  0  0
  9 22  1  0  0  0  0
 10 20  2  0  0  0  0
 10 29  1  0  0  0  0
 11 24  2  0  0  0  0
 11 35  1  0  0  0  0
 12 13  1  0  0  0  0
 12 17  1  0  0  0  0
 12 42  1  0  0  0  0
 13 43  1  0  0  0  0
 13 44  1  0  0  0  0
 14 15  1  0  0  0  0
 14 45  1  0  0  0  0
 14 46  1  0  0  0  0
 15 47  1  0  0  0  0
 15 48  1  0  0  0  0
 16 18  1  0  0  0  0
 17 49  1  0  0  0  0
 17 50  1  0  0  0  0
 17 51  1  0  0  0  0
 18 20  1  0  0  0  0
 18 23  2  0  0  0  0
 19 26  1  0  0  0  0
 21 24  1  0  0  0  0
 21 28  2  0  0  0  0
 23 27  1  0  0  0  0
 23 52  1  0  0  0  0
 24 25  1  0  0  0  0
 25 30  1  0  0  0  0
 25 31  1  0  0  0  0
 25 53  1  0  0  0  0
 26 36  2  0  0  0  0
 26 54  1  0  0  0  0
 27 29  2  0  0  0  0
 28 32  1  0  0  0  0
 28 34  1  0  0  0  0
 29 33  1  0  0  0  0
 30 55  1  0  0  0  0
 30 56  1  0  0  0  0
 30 57  1  0  0  0  0
 31 58  1  0  0  0  0
 31 59  1  0  0  0  0
 31 60  1  0  0  0  0
 32 35  2  0  0  0  0
 32 61  1  0  0  0  0
 33 37  2  0  0  0  0
 33 38  1  0  0  0  0
 34 62  1  0  0  0  0
 34 63  1  0  0  0  0
 34 64  1  0  0  0  0
 35 65  1  0  0  0  0
 36 66  1  0  0  0  0
 36 67  1  0  0  0  0
 37 39  1  0  0  0  0
 38 40  2  0  0  0  0
 39 41  2  0  0  0  0
 39 68  1  0  0  0  0
 40 41  1  0  0  0  0
 40 69  1  0  0  0  0
 41 70  1  0  0  0  0
M  END
> <PUBCHEM_COMPOUND_CID>
137278711

> <PUBCHEM_CONFORMER_RMSD>
1

> <PUBCHEM_CONFORMER_DIVERSEORDER>
1
36
44
14
30
35
40
38
43
34
8
41
39
10
26
21
13
28
16
20
17
31
25
11
23
4
7
27
32
29
24
3
6
19
22
5
42
15
18
2
9
37
12
33

> <PUBCHEM_MMFF94_PARTIAL_CHARGES>
47
1 -0.19
10 -0.62
11 -0.62
12 0.37
13 0.3
14 0.37
15 0.3
16 0.41
18 0.09
19 0.62
2 -0.19
20 0.43
21 0.12
22 0.84
23 -0.15
24 0.17
25 0.14
26 -0.14
27 0.19
28 -0.14
29 0.31
3 -0.57
32 -0.15
34 0.14
35 0.16
36 -0.3
37 0.08
38 0.19
39 -0.15
4 -0.57
40 -0.15
41 -0.15
5 -0.53
52 0.15
54 0.15
6 -0.79
61 0.15
65 0.15
66 0.15
67 0.15
68 0.15
69 0.15
7 -0.66
70 0.15
71 0.45
8 -0.29
9 -0.66

> <PUBCHEM_EFFECTIVE_ROTOR_COUNT>
7.2

> <PUBCHEM_PHARMACOPHORE_FEATURES>
12
1 11 acceptor
1 3 acceptor
1 36 hydrophobe
1 4 acceptor
1 5 donor
1 9 donor
3 25 30 31 hydrophobe
6 10 18 20 23 27 29 rings
6 11 21 24 28 32 35 rings
6 33 37 38 39 40 41 rings
6 6 7 12 13 14 15 rings
6 8 9 16 18 20 22 rings

> <PUBCHEM_HEAVY_ATOM_COUNT>
41

> <PUBCHEM_ATOM_DEF_STEREO_COUNT>
1

> <PUBCHEM_ATOM_UDEF_STEREO_COUNT>
0

> <PUBCHEM_BOND_DEF_STEREO_COUNT>
0

> <PUBCHEM_BOND_UDEF_STEREO_COUNT>
0

> <PUBCHEM_ISOTOPIC_ATOM_COUNT>
0

> <PUBCHEM_COMPONENT_COUNT>
1

> <PUBCHEM_CACTVS_TAUTO_COUNT>
-1

> <PUBCHEM_CONFORMER_ID>
082EB4F700000001

> <PUBCHEM_MMFF94_ENERGY>
152.484

> <PUBCHEM_FEATURE_SELFOVERLAP>
60.925

> <PUBCHEM_SHAPE_FINGERPRINT>
10050765 1 18339924939278263104
10119406 146 18126286338250880230
11991303 11 18188767241296425159
12156800 1 17978551725373120013
12160290 23 18266439040764090995
12788726 201 18195815291108390554
13140716 1 18412829100991879344
13540713 4 18197476606382096408
13540713 5 18263094356716228100
13583140 156 16950852401304741720
13690498 29 18334573598762966958
13692114 37 18273213085127755369
13692115 27 18338232798971585170
13911987 19 18192137205876389509
14118638 360 18189619526844994108
14347332 77 18337674234533181518
15021287 119 17168148932005214884
15276724 80 18194691594551445380
15439362 3 17905601112770597486
15775530 1 17843105155131775872
19301679 30 18267591388663759578
19311894 1 18410573972636223624
21033648 29 12606035528402237810
22311459 1 18338799992880404008
244849 19 17131252658708185394
3383291 50 18273495663415402839
3504750 166 18413387653225966582
4409770 3 18342175575181788563
484985 159 18411419522858213299
5080951 261 18339067242523905910
513202 73 18335146439583219083
59755656 520 18200309905532412829
6669772 16 18055636118363107462
6691757 9 18200878378982381024
70251023 43 18049724315018187427

> <PUBCHEM_SHAPE_MULTIPOLES>
781.72
15.2
6.15
2.15
40.49
4.15
0.45
4.84
-1.73
-12.84
1.14
-2.11
-1.37
-0.77

> <PUBCHEM_SHAPE_SELFOVERLAP>
1711.255

> <PUBCHEM_SHAPE_VOLUME>
423.7

> <PUBCHEM_COORDINATE_TYPE>
2
5
10

$$$$
140956840
  -OEChem-05102415023D

 71 75  0     1  0  0  0  0  0999 V2000
    0.3603   -3.9318   -0.2388 Cl  0  0  0  0  0  0  0  0  0  0  0  0
   -2.5641   -2.4581   -2.4092 F   0  0  0  0  0  0  0  0  0  0  0  0
    7.4527   -0.3421   -1.3079 O   0  0  0  0  0  0  0  0  0  0  0  0
   -0.2627    3.9531    0.6124 O   0  0  0  0  0  0  0  0  0  0  0  0
   -2.5010   -3.0491    2.3360 O   0  0  0  0  0  0  0  0  0  0  0  0
    2.9512    0.7841    0.1188 N   0  0  0  0  0  0  0  0  0  0  0  0
    5.4485   -0.4998   -0.1426 N   0  0  0  0  0  0  0  0  0  0  0  0
   -1.0392    1.7795    0.4344 N   0  0  0  0  0  0  0  0  0  0  0  0
    1.2905    2.3519    0.3257 N   0  0  0  0  0  0  0  0  0  0  0  0
   -1.7110   -0.5375    0.1869 N   0  0  0  0  0  0  0  0  0  0  0  0
   -4.4834    2.8183   -0.5168 N   0  0  0  0  0  0  0  0  0  0  0  0
    3.6661    0.8809   -1.1652 C   0  0  2  0  0  0  0  0  0  0  0  0
    4.6256   -0.3055   -1.3365 C   0  0  0  0  0  0  0  0  0  0  0  0
    3.7540    0.5079    1.3152 C   0  0  0  0  0  0  0  0  0  0  0  0
    4.6620   -0.6938    1.0799 C   0  0  0  0  0  0  0  0  0  0  0  0
    1.6373    1.1015    0.2157 C   0  0  0  0  0  0  0  0  0  0  0  0
    4.3890    2.2248   -1.2674 C   0  0  0  0  0  0  0  0  0  0  0  0
    0.6148    0.0312    0.1872 C   0  0  0  0  0  0  0  0  0  0  0  0
    6.8343   -0.5104   -0.2555 C   0  0  0  0  0  0  0  0  0  0  0  0
   -0.7249    0.3929    0.2859 C   0  0  0  0  0  0  0  0  0  0  0  0
   -2.4196    2.1578    0.5552 C   0  0  0  0  0  0  0  0  0  0  0  0
   -0.0206    2.7551    0.4497 C   0  0  0  0  0  0  0  0  0  0  0  0
    0.9452   -1.3188    0.0279 C   0  0  0  0  0  0  0  0  0  0  0  0
   -3.1817    2.4564   -0.5628 C   0  0  0  0  0  0  0  0  0  0  0  0
   -2.5814    2.3911   -1.9300 C   0  0  0  0  0  0  0  0  0  0  0  0
    7.6222   -0.7336    0.9726 C   0  0  0  0  0  0  0  0  0  0  0  0
   -0.0601   -2.2727   -0.0455 C   0  0  0  0  0  0  0  0  0  0  0  0
   -3.0330    2.2357    1.8007 C   0  0  0  0  0  0  0  0  0  0  0  0
   -1.3640   -1.8335    0.0334 C   0  0  0  0  0  0  0  0  0  0  0  0
   -3.2645    1.3376   -2.8202 C   0  0  0  0  0  0  0  0  0  0  0  0
   -2.5850    3.7585   -2.6370 C   0  0  0  0  0  0  0  0  0  0  0  0
   -4.3707    2.6046    1.8887 C   0  0  0  0  0  0  0  0  0  0  0  0
   -2.4989   -2.7271   -0.0464 C   0  0  0  0  0  0  0  0  0  0  0  0
   -2.2837    1.9281    3.0558 C   0  0  0  0  0  0  0  0  0  0  0  0
   -5.0456    2.8832    0.7110 C   0  0  0  0  0  0  0  0  0  0  0  0
    8.8095   -1.3354    0.8760 C   0  0  0  0  0  0  0  0  0  0  0  0
   -3.0315   -3.3050    1.1061 C   0  0  0  0  0  0  0  0  0  0  0  0
   -3.0619   -3.0075   -1.2915 C   0  0  0  0  0  0  0  0  0  0  0  0
   -4.1272   -4.1634    1.0135 C   0  0  0  0  0  0  0  0  0  0  0  0
   -4.1576   -3.8659   -1.3840 C   0  0  0  0  0  0  0  0  0  0  0  0
   -4.6903   -4.4436   -0.2315 C   0  0  0  0  0  0  0  0  0  0  0  0
    2.9387    0.8351   -1.9865 H   0  0  0  0  0  0  0  0  0  0  0  0
    4.0552   -1.2314   -1.4809 H   0  0  0  0  0  0  0  0  0  0  0  0
    5.2469   -0.1703   -2.2280 H   0  0  0  0  0  0  0  0  0  0  0  0
    3.1049    0.3053    2.1754 H   0  0  0  0  0  0  0  0  0  0  0  0
    4.3496    1.3941    1.5626 H   0  0  0  0  0  0  0  0  0  0  0  0
    5.2864   -0.8615    1.9576 H   0  0  0  0  0  0  0  0  0  0  0  0
    4.0713   -1.6062    0.9394 H   0  0  0  0  0  0  0  0  0  0  0  0
    5.1500    2.3438   -0.4894 H   0  0  0  0  0  0  0  0  0  0  0  0
    3.6840    3.0570   -1.1686 H   0  0  0  0  0  0  0  0  0  0  0  0
    4.8858    2.3212   -2.2386 H   0  0  0  0  0  0  0  0  0  0  0  0
    1.9802   -1.6322   -0.0568 H   0  0  0  0  0  0  0  0  0  0  0  0
   -1.5288    2.0941   -1.8887 H   0  0  0  0  0  0  0  0  0  0  0  0
    7.2713   -0.3763    1.9311 H   0  0  0  0  0  0  0  0  0  0  0  0
   -2.7622    1.2653   -3.7908 H   0  0  0  0  0  0  0  0  0  0  0  0
   -3.2316    0.3494   -2.3489 H   0  0  0  0  0  0  0  0  0  0  0  0
   -4.3159    1.5859   -3.0027 H   0  0  0  0  0  0  0  0  0  0  0  0
   -2.0599    4.5080   -2.0345 H   0  0  0  0  0  0  0  0  0  0  0  0
   -2.0834    3.6943   -3.6085 H   0  0  0  0  0  0  0  0  0  0  0  0
   -3.6049    4.1206   -2.8076 H   0  0  0  0  0  0  0  0  0  0  0  0
   -4.8848    2.6759    2.8411 H   0  0  0  0  0  0  0  0  0  0  0  0
   -1.4049    2.5741    3.1511 H   0  0  0  0  0  0  0  0  0  0  0  0
   -2.9003    2.0919    3.9465 H   0  0  0  0  0  0  0  0  0  0  0  0
   -1.9672    0.8802    3.0678 H   0  0  0  0  0  0  0  0  0  0  0  0
   -6.0904    3.1751    0.7252 H   0  0  0  0  0  0  0  0  0  0  0  0
    9.4133   -1.4865    1.7649 H   0  0  0  0  0  0  0  0  0  0  0  0
    9.2111   -1.6984   -0.0638 H   0  0  0  0  0  0  0  0  0  0  0  0
   -4.5529   -4.6211    1.9025 H   0  0  0  0  0  0  0  0  0  0  0  0
   -4.5961   -4.0836   -2.3534 H   0  0  0  0  0  0  0  0  0  0  0  0
   -5.5436   -5.1116   -0.3038 H   0  0  0  0  0  0  0  0  0  0  0  0
   -3.0043   -3.5389    3.0087 H   0  0  0  0  0  0  0  0  0  0  0  0
  1 27  1  0  0  0  0
  2 38  1  0  0  0  0
  3 19  2  0  0  0  0
  4 22  2  0  0  0  0
  5 37  1  0  0  0  0
  5 71  1  0  0  0  0
  6 12  1  0  0  0  0
  6 14  1  0  0  0  0
  6 16  1  0  0  0  0
  7 13  1  0  0  0  0
  7 15  1  0  0  0  0
  7 19  1  0  0  0  0
  8 20  1  0  0  0  0
  8 21  1  0  0  0  0
  8 22  1  0  0  0  0
  9 16  2  0  0  0  0
  9 22  1  0  0  0  0
 10 20  2  0  0  0  0
 10 29  1  0  0  0  0
 11 24  2  0  0  0  0
 11 35  1  0  0  0  0
 12 13  1  0  0  0  0
 12 17  1  0  0  0  0
 12 42  1  0  0  0  0
 13 43  1  0  0  0  0
 13 44  1  0  0  0  0
 14 15  1  0  0  0  0
 14 45  1  0  0  0  0
 14 46  1  0  0  0  0
 15 47  1  0  0  0  0
 15 48  1  0  0  0  0
 16 18  1  0  0  0  0
 17 49  1  0  0  0  0
 17 50  1  0  0  0  0
 17 51  1  0  0  0  0
 18 20  1  0  0  0  0
 18 23  2  0  0  0  0
 19 26  1  0  0  0  0
 21 24  1  0  0  0  0
 21 28  2  0  0  0  0
 23 27  1  0  0  0  0
 23 52  1  0  0  0  0
 24 25  1  0  0  0  0
 25 30  1  0  0  0  0
 25 31  1  0  0  0  0
 25 53  1  0  0  0  0
 26 36  2  0  0  0  0
 26 54  1  0  0  0  0
 27 29  2  0  0  0  0
 28 32  1  0  0  0  0
 28 34  1  0  0  0  0
 29 33  1  0  0  0  0
 30 55  1  0  0  0  0
 30 56  1  0  0  0  0
 30 57  1  0  0  0  0
 31 58  1  0  0  0  0
 31 59  1  0  0  0  0
 31 60  1  0  0  0  0
 32 35  2  0  0  0  0
 32 61  1  0  0  0  0
 33 37  2  0  0  0  0
 33 38  1  0  0  0  0
 34 62  1  0  0  0  0
 34 63  1  0  0  0  0
 34 64  1  0  0  0  0
 35 65  1  0  0  0  0
 36 66  1  0  0  0  0
 36 67  1  0  0  0  0
 37 39  1  0  0  0  0
 38 40  2  0  0  0  0
 39 41  2  0  0  0  0
 39 68  1  0  0  0  0
 40 41  1  0  0  0  0
 40 69  1  0  0  0  0
 41 70  1  0  0  0  0
M  END
> <PUBCHEM_COMPOUND_CID>
140956840

> <PUBCHEM_CONFORMER_RMSD>
1

> <PUBCHEM_CONFORMER_DIVERSEORDER>
1
30
26
23
31
29
27
14
13
8
24
28
18
25
11
15
19
17
21
6
20
9
7
2
4
22
16
12
5
10
3

> <PUBCHEM_MMFF94_PARTIAL_CHARGES>
47
1 -0.18
10 -0.62
11 -0.62
12 0.37
13 0.3
14 0.37
15 0.3
16 0.41
18 0.09
19 0.62
2 -0.19
20 0.43
21 0.12
22 0.84
23 -0.15
24 0.17
25 0.14
26 -0.14
27 0.18
28 -0.14
29 0.31
3 -0.57
32 -0.15
34 0.14
35 0.16
36 -0.3
37 0.08
38 0.19
39 -0.15
4 -0.57
40 -0.15
41 -0.15
5 -0.53
52 0.15
54 0.15
6 -0.79
61 0.15
65 0.15
66 0.15
67 0.15
68 0.15
69 0.15
7 -0.66
70 0.15
71 0.45
8 -0.29
9 -0.66

> <PUBCHEM_EFFECTIVE_ROTOR_COUNT>
7.2

> <PUBCHEM_PHARMACOPHORE_FEATURES>
12
1 11 acceptor
1 3 acceptor
1 36 hydrophobe
1 4 acceptor
1 5 donor
1 9 donor
3 25 30 31 hydrophobe
6 10 18 20 23 27 29 rings
6 11 21 24 28 32 35 rings
6 33 37 38 39 40 41 rings
6 6 7 12 13 14 15 rings
6 8 9 16 18 20 22 rings

> <PUBCHEM_HEAVY_ATOM_COUNT>
41

> <PUBCHEM_ATOM_DEF_STEREO_COUNT>
1

> <PUBCHEM_ATOM_UDEF_STEREO_COUNT>
0

> <PUBCHEM_BOND_DEF_STEREO_COUNT>
0

> <PUBCHEM_BOND_UDEF_STEREO_COUNT>
0

> <PUBCHEM_ISOTOPIC_ATOM_COUNT>
0

> <PUBCHEM_COMPONENT_COUNT>
1

> <PUBCHEM_CACTVS_TAUTO_COUNT>
-1

> <PUBCHEM_CONFORMER_ID>
0866D4A800000001

> <PUBCHEM_MMFF94_ENERGY>
153.9491

> <PUBCHEM_FEATURE_SELFOVERLAP>
60.925

> <PUBCHEM_SHAPE_FINGERPRINT>
10050765 1 18339926034494917088
10119406 146 18055357942638854070
11421498 54 13484693801305689885
11991303 11 18335423426867036535
12156800 1 17908748138814925325
12160290 23 18339623634178278313
12788726 201 18196941191041613354
13140716 1 18341617035822443296
13540713 4 18198603601553039832
13540713 5 18264221356076754084
13583140 156 17095530543644810448
13692115 27 18338796848473544538
13782708 43 17775565369343224086
13911987 19 18192138301103612429
14068700 675 18199464544515681791
14118638 360 18264211495200795900
14347332 77 18339081605084818294
14866123 147 18411425024716744019
15021287 119 17312827061434079468
15276724 80 18123759904694247780
15439362 3 17979633429692004518
15775530 1 17772454936030109808
15927050 60 18268995280428867443
19311894 1 18411140212508213456
22223350 30 18341609334830128136
22311459 1 18339645517221982488
244849 19 16987979692175712322
5080951 261 18341880892826909590
513202 73 18337400446983798691
57527293 21 17171564031990434681
59755656 520 18200030629642261217
6669772 16 18124598587147818159
6691757 9 18201724998572281480

> <PUBCHEM_SHAPE_MULTIPOLES>
790.86
15.06
6.22
2.19
40.04
3.67
0.27
4.42
-0.64
-12.5
0.42
-2.34
-1.22
-0.96

> <PUBCHEM_SHAPE_SELFOVERLAP>
1718.066

> <PUBCHEM_SHAPE_VOLUME>
434.8

> <PUBCHEM_COORDINATE_TYPE>
2
5
10

$$$$
146254335
  -OEChem-05102415023D

 67 72  0     1  0  0  0  0  0999 V2000
    0.1576   -3.9324   -0.4007 Cl  0  0  0  0  0  0  0  0  0  0  0  0
   -2.6478   -3.0754    2.1964 F   0  0  0  0  0  0  0  0  0  0  0  0
   -0.2747    3.9058    0.8880 O   0  0  0  0  0  0  0  0  0  0  0  0
    7.3058   -0.6264   -1.3372 O   0  0  0  0  0  0  0  0  0  0  0  0
   -2.7635   -2.3124   -2.5229 O   0  0  0  0  0  0  0  0  0  0  0  0
    2.8624    0.6906    0.2256 N   0  0  0  0  0  0  0  0  0  0  0  0
   -1.1041    1.7659    0.5849 N   0  0  0  0  0  0  0  0  0  0  0  0
    5.3242   -0.6670   -0.1196 N   0  0  0  0  0  0  0  0  0  0  0  0
    1.2396    2.2851    0.5162 N   0  0  0  0  0  0  0  0  0  0  0  0
   -1.8318   -0.5162    0.2044 N   0  0  0  0  0  0  0  0  0  0  0  0
   -2.2406    3.6939   -1.2667 C   0  0  0  0  0  0  0  0  0  0  0  0
   -1.5579    2.7806   -2.2489 C   0  0  0  0  0  0  0  0  0  0  0  0
   -2.7508    3.5766   -2.6776 C   0  0  0  0  0  0  0  0  0  0  0  0
   -3.0408    3.0954   -0.1560 C   0  0  0  0  0  0  0  0  0  0  0  0
   -2.4753    2.1711    0.7225 C   0  0  0  0  0  0  0  0  0  0  0  0
    3.5823    0.8461   -1.0457 C   0  0  2  0  0  0  0  0  0  0  0  0
   -4.3744    3.4755   -0.0051 C   0  0  0  0  0  0  0  0  0  0  0  0
    4.4987   -0.3569   -1.2861 C   0  0  0  0  0  0  0  0  0  0  0  0
    3.6489    0.3286    1.4052 C   0  0  0  0  0  0  0  0  0  0  0  0
    4.5685   -0.8566    1.1228 C   0  0  0  0  0  0  0  0  0  0  0  0
    1.5560    1.0347    0.3369 C   0  0  0  0  0  0  0  0  0  0  0  0
   -3.2435    1.6268    1.7515 C   0  0  0  0  0  0  0  0  0  0  0  0
   -0.8235    0.3823    0.3592 C   0  0  0  0  0  0  0  0  0  0  0  0
    0.5073   -0.0066    0.2450 C   0  0  0  0  0  0  0  0  0  0  0  0
    4.3507    2.1678   -1.0624 C   0  0  0  0  0  0  0  0  0  0  0  0
   -5.1425    2.9311    1.0240 C   0  0  0  0  0  0  0  0  0  0  0  0
   -0.0617    2.7131    0.6587 C   0  0  0  0  0  0  0  0  0  0  0  0
   -4.5771    2.0068    1.9024 C   0  0  0  0  0  0  0  0  0  0  0  0
    6.7022   -0.7932   -0.2759 C   0  0  0  0  0  0  0  0  0  0  0  0
    0.8050   -1.3534    0.0117 C   0  0  0  0  0  0  0  0  0  0  0  0
   -1.5162   -1.8099   -0.0200 C   0  0  0  0  0  0  0  0  0  0  0  0
   -0.2232   -2.2764   -0.1186 C   0  0  0  0  0  0  0  0  0  0  0  0
    7.4995   -1.1565    0.9125 C   0  0  0  0  0  0  0  0  0  0  0  0
   -2.6721   -2.6704   -0.1474 C   0  0  0  0  0  0  0  0  0  0  0  0
   -3.2586   -2.8937   -1.3930 C   0  0  0  0  0  0  0  0  0  0  0  0
   -3.1997   -3.2794    0.9913 C   0  0  0  0  0  0  0  0  0  0  0  0
    8.7580   -0.7216    1.0021 C   0  0  0  0  0  0  0  0  0  0  0  0
   -4.3727   -3.7262   -1.5001 C   0  0  0  0  0  0  0  0  0  0  0  0
   -4.3138   -4.1119    0.8841 C   0  0  0  0  0  0  0  0  0  0  0  0
   -4.9003   -4.3352   -0.3616 C   0  0  0  0  0  0  0  0  0  0  0  0
   -1.7458    4.6372   -1.0481 H   0  0  0  0  0  0  0  0  0  0  0  0
   -1.6947    1.7076   -2.1952 H   0  0  0  0  0  0  0  0  0  0  0  0
   -0.5872    3.0827   -2.6242 H   0  0  0  0  0  0  0  0  0  0  0  0
   -2.5839    4.4135   -3.3454 H   0  0  0  0  0  0  0  0  0  0  0  0
   -3.6671    3.0324   -2.8731 H   0  0  0  0  0  0  0  0  0  0  0  0
    2.8572    0.8768   -1.8698 H   0  0  0  0  0  0  0  0  0  0  0  0
   -4.8279    4.1986   -0.6779 H   0  0  0  0  0  0  0  0  0  0  0  0
    3.8935   -1.2510   -1.4815 H   0  0  0  0  0  0  0  0  0  0  0  0
    5.1164   -0.1935   -2.1756 H   0  0  0  0  0  0  0  0  0  0  0  0
    2.9920    0.0792    2.2473 H   0  0  0  0  0  0  0  0  0  0  0  0
    4.2438    1.1964    1.7137 H   0  0  0  0  0  0  0  0  0  0  0  0
    5.2193   -1.0025    1.9858 H   0  0  0  0  0  0  0  0  0  0  0  0
    3.9826   -1.7745    0.9983 H   0  0  0  0  0  0  0  0  0  0  0  0
   -2.8180    0.9162    2.4558 H   0  0  0  0  0  0  0  0  0  0  0  0
    5.1161    2.2093   -0.2806 H   0  0  0  0  0  0  0  0  0  0  0  0
    3.6750    3.0156   -0.9077 H   0  0  0  0  0  0  0  0  0  0  0  0
    4.8502    2.3098   -2.0266 H   0  0  0  0  0  0  0  0  0  0  0  0
   -6.1803    3.2283    1.1428 H   0  0  0  0  0  0  0  0  0  0  0  0
   -5.1743    1.5856    2.7058 H   0  0  0  0  0  0  0  0  0  0  0  0
    1.8334   -1.6873   -0.0822 H   0  0  0  0  0  0  0  0  0  0  0  0
    7.0909   -1.8025    1.6779 H   0  0  0  0  0  0  0  0  0  0  0  0
    9.3663   -0.9984    1.8571 H   0  0  0  0  0  0  0  0  0  0  0  0
    9.2156   -0.0839    0.2536 H   0  0  0  0  0  0  0  0  0  0  0  0
   -4.8403   -3.9099   -2.4638 H   0  0  0  0  0  0  0  0  0  0  0  0
   -4.7243   -4.5861    1.7707 H   0  0  0  0  0  0  0  0  0  0  0  0
   -5.7677   -4.9834   -0.4448 H   0  0  0  0  0  0  0  0  0  0  0  0
   -3.3022   -2.5863   -3.2849 H   0  0  0  0  0  0  0  0  0  0  0  0
  1 32  1  0  0  0  0
  2 36  1  0  0  0  0
  3 27  2  0  0  0  0
  4 29  2  0  0  0  0
  5 35  1  0  0  0  0
  5 67  1  0  0  0  0
  6 16  1  0  0  0  0
  6 19  1  0  0  0  0
  6 21  1  0  0  0  0
  7 15  1  0  0  0  0
  7 23  1  0  0  0  0
  7 27  1  0  0  0  0
  8 18  1  0  0  0  0
  8 20  1  0  0  0  0
  8 29  1  0  0  0  0
  9 21  2  0  0  0  0
  9 27  1  0  0  0  0
 10 23  2  0  0  0  0
 10 31  1  0  0  0  0
 11 12  1  0  0  0  0
 11 13  1  0  0  0  0
 11 14  1  0  0  0  0
 11 41  1  0  0  0  0
 12 13  1  0  0  0  0
 12 42  1  0  0  0  0
 12 43  1  0  0  0  0
 13 44  1  0  0  0  0
 13 45  1  0  0  0  0
 14 15  1  0  0  0  0
 14 17  2  0  0  0  0
 15 22  2  0  0  0  0
 16 18  1  0  0  0  0
 16 25  1  0  0  0  0
 16 46  1  0  0  0  0
 17 26  1  0  0  0  0
 17 47  1  0  0  0  0
 18 48  1  0  0  0  0
 18 49  1  0  0  0  0
 19 20  1  0  0  0  0
 19 50  1  0  0  0  0
 19 51  1  0  0  0  0
 20 52  1  0  0  0  0
 20 53  1  0  0  0  0
 21 24  1  0  0  0  0
 22 28  1  0  0  0  0
 22 54  1  0  0  0  0
 23 24  1  0  0  0  0
 24 30  2  0  0  0  0
 25 55  1  0  0  0  0
 25 56  1  0  0  0  0
 25 57  1  0  0  0  0
 26 28  2  0  0  0  0
 26 58  1  0  0  0  0
 28 59  1  0  0  0  0
 29 33  1  0  0  0  0
 30 32  1  0  0  0  0
 30 60  1  0  0  0  0
 31 32  2  0  0  0  0
 31 34  1  0  0  0  0
 33 37  2  0  0  0  0
 33 61  1  0  0  0  0
 34 35  2  0  0  0  0
 34 36  1  0  0  0  0
 35 38  1  0  0  0  0
 36 39  2  0  0  0  0
 37 62  1  0  0  0  0
 37 63  1  0  0  0  0
 38 40  2  0  0  0  0
 38 64  1  0  0  0  0
 39 40  1  0  0  0  0
 39 65  1  0  0  0  0
 40 66  1  0  0  0  0
M  END
> <PUBCHEM_COMPOUND_CID>
146254335

> <PUBCHEM_CONFORMER_RMSD>
1

> <PUBCHEM_CONFORMER_DIVERSEORDER>
1
43
41
48
13
29
27
31
25
37
21
45
30
33
39
32
47
42
10
24
14
6
22
40
28
23
35
17
12
44
16
19
46
38
15
8
18
7
11
36
34
2
9
3
4
20
26
5

> <PUBCHEM_MMFF94_PARTIAL_CHARGES>
55
1 -0.18
10 -0.62
11 -0.07
12 -0.2
13 -0.2
14 -0.03
15 0.12
16 0.37
17 -0.15
18 0.3
19 0.37
2 -0.19
20 0.3
21 0.41
22 -0.15
23 0.43
24 0.09
26 -0.15
27 0.84
28 -0.15
29 0.62
3 -0.57
30 -0.15
31 0.31
32 0.18
33 -0.14
35 0.08
36 0.19
37 -0.3
38 -0.15
39 -0.15
4 -0.57
40 -0.15
41 0.1
42 0.1
43 0.1
44 0.1
45 0.1
47 0.15
5 -0.53
54 0.15
58 0.15
59 0.15
6 -0.79
60 0.15
61 0.15
62 0.15
63 0.15
64 0.15
65 0.15
66 0.15
67 0.45
7 -0.29
8 -0.66
9 -0.66

> <PUBCHEM_EFFECTIVE_ROTOR_COUNT>
7.8

> <PUBCHEM_PHARMACOPHORE_FEATURES>
10
1 3 acceptor
1 37 hydrophobe
1 4 acceptor
1 5 donor
1 9 donor
6 10 23 24 30 31 32 rings
6 14 15 17 22 26 28 rings
6 34 35 36 38 39 40 rings
6 6 8 16 18 19 20 rings
6 7 9 21 23 24 27 rings

> <PUBCHEM_HEAVY_ATOM_COUNT>
40

> <PUBCHEM_ATOM_DEF_STEREO_COUNT>
1

> <PUBCHEM_ATOM_UDEF_STEREO_COUNT>
0

> <PUBCHEM_BOND_DEF_STEREO_COUNT>
0

> <PUBCHEM_BOND_UDEF_STEREO_COUNT>
0

> <PUBCHEM_ISOTOPIC_ATOM_COUNT>
0

> <PUBCHEM_COMPONENT_COUNT>
1

> <PUBCHEM_CACTVS_TAUTO_COUNT>
-1

> <PUBCHEM_CONFORMER_ID>
08B7A9FF00000001

> <PUBCHEM_MMFF94_ENERGY>
152.192

> <PUBCHEM_FEATURE_SELFOVERLAP>
50.775

> <PUBCHEM_SHAPE_FINGERPRINT>
10050765 1 18340488980116447920
10119406 146 17984426235617494782
10165383 225 18268154158550210385
10190108 129 18337404824315070395
10290309 65 18047474422185935618
10411042 1 18268145555556480667
11297750 10 18269826687381554440
11331351 85 18055915639789113311
11524674 6 18199752453590824041
11991303 11 18262519169772771999
12156800 1 17981363176552875101
12160290 23 18267846402747067609
12422481 6 17559420104546848503
12633046 712 17465395505400574195
12788726 201 18267307723421844298
131258 43 17902250123499143670
13140716 1 18342460361082653024
13383668 254 15410601615545608370
13540713 4 18200576104070263456
13690498 29 18340493352450554070
13692115 27 18339359798247611186
13782708 43 17775004622623681446
140371 6 17687187899294929017
14068700 675 18129098008273084623
14118638 360 18264210387114979868
14347332 77 18410576236384604310
14725015 67 18340482395451652114
14856354 85 16806755908989326297
14866123 147 18411422812845412339
15021287 119 17385731275088313956
15131766 46 16156562044693038132
15276724 80 18126011695838909500
15439362 3 17836363748972978198
15484559 13 17983005649446129021
15927050 60 18268994176733022675
17686467 74 18266171911558618904
1813 80 17983590876867322263
19301676 85 17334512510173756726
19301679 30 18268435809272530995
20511986 3 17895749592488112800
21033648 29 11023012580212033074
21133410 90 16915956256920038203
21639891 77 18201719569960460032
21703447 108 18267573801478869416
22223350 30 18342733027055143992
22311459 1 18268434542678964064
23536364 44 18265878302787821735
244849 19 16772929502749001162
255183 313 18340223903271567489
3103668 31 18335692867693530733
3388396 114 17680450023869276204
397830 11 18059565932899854472
4046055 25 18122625226069528767
5080951 261 18272072891005340062
513202 73 18341059613164981331
5171179 24 17986950945483297904
59025328 239 17125042754410169439
6669772 16 18054793879581845983
6677587 24 15728343754942191525
6691757 9 18201160944701553784
6698420 124 17843132402403847008

> <PUBCHEM_SHAPE_MULTIPOLES>
775.26
15.15
6.56
1.88
37.87
2.18
0.66
5.13
-1.86
-13.8
1.23
-1.45
-0.65
-1.04

> <PUBCHEM_SHAPE_SELFOVERLAP>
1702.098

> <PUBCHEM_SHAPE_VOLUME>
419.5

> <PUBCHEM_COORDINATE_TYPE>
2
5
10

$$$$
137288870
  -OEChem-05102415023D

 72 76  0     1  0  0  0  0  0999 V2000
    0.2993   -3.9307    0.1937 Cl  0  0  0  0  0  0  0  0  0  0  0  0
   -2.5408   -2.7750   -2.2626 F   0  0  0  0  0  0  0  0  0  0  0  0
    7.4626   -0.5913   -1.1722 O   0  0  0  0  0  0  0  0  0  0  0  0
   -0.2556    3.9974   -0.1549 O   0  0  0  0  0  0  0  0  0  0  0  0
   -2.6275   -2.6542    2.5173 O   0  0  0  0  0  0  0  0  0  0  0  0
    2.9339    0.7671   -0.0711 N   0  0  0  0  0  0  0  0  0  0  0  0
    5.4226   -0.5595   -0.0603 N   0  0  0  0  0  0  0  0  0  0  0  0
   -1.0521    1.8272   -0.0327 N   0  0  0  0  0  0  0  0  0  0  0  0
    1.2864    2.3602   -0.1517 N   0  0  0  0  0  0  0  0  0  0  0  0
   -1.7435   -0.4960    0.0453 N   0  0  0  0  0  0  0  0  0  0  0  0
    3.6883    0.6666   -1.3322 C   0  0  2  0  0  0  0  0  0  0  0  0
    4.6384   -0.5389   -1.2951 C   0  0  0  0  0  0  0  0  0  0  0  0
    3.6970    0.6660    1.1776 C   0  0  0  0  0  0  0  0  0  0  0  0
    4.5974   -0.5638    1.1521 C   0  0  0  0  0  0  0  0  0  0  0  0
    1.6216    1.1049   -0.0639 C   0  0  0  0  0  0  0  0  0  0  0  0
    4.4298    1.9752   -1.6099 C   0  0  0  0  0  0  0  0  0  0  0  0
    0.5878    0.0496    0.0345 C   0  0  0  0  0  0  0  0  0  0  0  0
    6.8109   -0.5968   -0.1266 C   0  0  0  0  0  0  0  0  0  0  0  0
   -0.7499    0.4317    0.0361 C   0  0  0  0  0  0  0  0  0  0  0  0
   -2.4309    2.2293   -0.0130 C   0  0  0  0  0  0  0  0  0  0  0  0
   -0.0230    2.7868   -0.1303 C   0  0  0  0  0  0  0  0  0  0  0  0
    0.9068   -1.3114    0.0878 C   0  0  0  0  0  0  0  0  0  0  0  0
   -3.0640    2.4920    1.2018 C   0  0  0  0  0  0  0  0  0  0  0  0
   -3.1368    2.3570   -1.2095 C   0  0  0  0  0  0  0  0  0  0  0  0
    7.5589   -0.6405    1.1453 C   0  0  0  0  0  0  0  0  0  0  0  0
   -0.1071   -2.2583    0.1252 C   0  0  0  0  0  0  0  0  0  0  0  0
   -1.4074   -1.8028    0.0969 C   0  0  0  0  0  0  0  0  0  0  0  0
   -2.3342    2.3628    2.4997 C   0  0  0  0  0  0  0  0  0  0  0  0
   -2.4861    2.0835   -2.5270 C   0  0  0  0  0  0  0  0  0  0  0  0
   -4.4030    2.8828    1.2204 C   0  0  0  0  0  0  0  0  0  0  0  0
   -4.4758    2.7477   -1.1909 C   0  0  0  0  0  0  0  0  0  0  0  0
   -2.5499   -2.6901    0.1148 C   0  0  0  0  0  0  0  0  0  0  0  0
   -5.1088    3.0109    0.0240 C   0  0  0  0  0  0  0  0  0  0  0  0
   -1.9317    3.7176    3.0734 C   0  0  0  0  0  0  0  0  0  0  0  0
   -2.8905    0.7293   -3.1008 C   0  0  0  0  0  0  0  0  0  0  0  0
    8.7413   -1.2586    1.1765 C   0  0  0  0  0  0  0  0  0  0  0  0
   -3.1238   -3.0863    1.3229 C   0  0  0  0  0  0  0  0  0  0  0  0
   -3.0785   -3.1485   -1.0919 C   0  0  0  0  0  0  0  0  0  0  0  0
   -4.2263   -3.9410    1.3243 C   0  0  0  0  0  0  0  0  0  0  0  0
   -4.1810   -4.0031   -1.0906 C   0  0  0  0  0  0  0  0  0  0  0  0
   -4.7550   -4.3991    0.1176 C   0  0  0  0  0  0  0  0  0  0  0  0
    2.9854    0.5045   -2.1601 H   0  0  0  0  0  0  0  0  0  0  0  0
    4.0616   -1.4719   -1.3184 H   0  0  0  0  0  0  0  0  0  0  0  0
    5.2878   -0.5423   -2.1768 H   0  0  0  0  0  0  0  0  0  0  0  0
    3.0200    0.5983    2.0375 H   0  0  0  0  0  0  0  0  0  0  0  0
    4.2954    1.5749    1.3095 H   0  0  0  0  0  0  0  0  0  0  0  0
    5.1931   -0.6036    2.0642 H   0  0  0  0  0  0  0  0  0  0  0  0
    4.0005   -1.4826    1.1301 H   0  0  0  0  0  0  0  0  0  0  0  0
    4.9567    1.9224   -2.5684 H   0  0  0  0  0  0  0  0  0  0  0  0
    5.1684    2.2030   -0.8345 H   0  0  0  0  0  0  0  0  0  0  0  0
    3.7321    2.8179   -1.6579 H   0  0  0  0  0  0  0  0  0  0  0  0
    1.9401   -1.6414    0.0832 H   0  0  0  0  0  0  0  0  0  0  0  0
    7.1834   -0.1421    2.0286 H   0  0  0  0  0  0  0  0  0  0  0  0
   -2.9844    1.8502    3.2210 H   0  0  0  0  0  0  0  0  0  0  0  0
   -1.4469    1.7271    2.4272 H   0  0  0  0  0  0  0  0  0  0  0  0
   -2.7787    2.8704   -3.2349 H   0  0  0  0  0  0  0  0  0  0  0  0
   -1.3946    2.1447   -2.4817 H   0  0  0  0  0  0  0  0  0  0  0  0
   -4.9096    3.0897    2.1595 H   0  0  0  0  0  0  0  0  0  0  0  0
   -5.0381    2.8525   -2.1152 H   0  0  0  0  0  0  0  0  0  0  0  0
   -6.1513    3.3151    0.0384 H   0  0  0  0  0  0  0  0  0  0  0  0
   -1.2652    4.2570    2.3935 H   0  0  0  0  0  0  0  0  0  0  0  0
   -1.4072    3.5820    4.0247 H   0  0  0  0  0  0  0  0  0  0  0  0
   -2.8057    4.3508    3.2595 H   0  0  0  0  0  0  0  0  0  0  0  0
   -2.5897   -0.0927   -2.4479 H   0  0  0  0  0  0  0  0  0  0  0  0
   -2.4117    0.5771   -4.0735 H   0  0  0  0  0  0  0  0  0  0  0  0
   -3.9737    0.6619   -3.2470 H   0  0  0  0  0  0  0  0  0  0  0  0
    9.3162   -1.2802    2.0966 H   0  0  0  0  0  0  0  0  0  0  0  0
    9.1667   -1.7602    0.3141 H   0  0  0  0  0  0  0  0  0  0  0  0
   -4.6840   -4.2583    2.2575 H   0  0  0  0  0  0  0  0  0  0  0  0
   -4.5927   -4.3594   -2.0302 H   0  0  0  0  0  0  0  0  0  0  0  0
   -5.6135   -5.0643    0.1183 H   0  0  0  0  0  0  0  0  0  0  0  0
   -3.1567   -3.0348    3.2391 H   0  0  0  0  0  0  0  0  0  0  0  0
  1 26  1  0  0  0  0
  2 38  1  0  0  0  0
  3 18  2  0  0  0  0
  4 21  2  0  0  0  0
  5 37  1  0  0  0  0
  5 72  1  0  0  0  0
  6 11  1  0  0  0  0
  6 13  1  0  0  0  0
  6 15  1  0  0  0  0
  7 12  1  0  0  0  0
  7 14  1  0  0  0  0
  7 18  1  0  0  0  0
  8 19  1  0  0  0  0
  8 20  1  0  0  0  0
  8 21  1  0  0  0  0
  9 15  2  0  0  0  0
  9 21  1  0  0  0  0
 10 19  2  0  0  0  0
 10 27  1  0  0  0  0
 11 12  1  0  0  0  0
 11 16  1  0  0  0  0
 11 42  1  0  0  0  0
 12 43  1  0  0  0  0
 12 44  1  0  0  0  0
 13 14  1  0  0  0  0
 13 45  1  0  0  0  0
 13 46  1  0  0  0  0
 14 47  1  0  0  0  0
 14 48  1  0  0  0  0
 15 17  1  0  0  0  0
 16 49  1  0  0  0  0
 16 50  1  0  0  0  0
 16 51  1  0  0  0  0
 17 19  1  0  0  0  0
 17 22  2  0  0  0  0
 18 25  1  0  0  0  0
 20 23  2  0  0  0  0
 20 24  1  0  0  0  0
 22 26  1  0  0  0  0
 22 52  1  0  0  0  0
 23 28  1  0  0  0  0
 23 30  1  0  0  0  0
 24 29  1  0  0  0  0
 24 31  2  0  0  0  0
 25 36  2  0  0  0  0
 25 53  1  0  0  0  0
 26 27  2  0  0  0  0
 27 32  1  0  0  0  0
 28 34  1  0  0  0  0
 28 54  1  0  0  0  0
 28 55  1  0  0  0  0
 29 35  1  0  0  0  0
 29 56  1  0  0  0  0
 29 57  1  0  0  0  0
 30 33  2  0  0  0  0
 30 58  1  0  0  0  0
 31 33  1  0  0  0  0
 31 59  1  0  0  0  0
 32 37  2  0  0  0  0
 32 38  1  0  0  0  0
 33 60  1  0  0  0  0
 34 61  1  0  0  0  0
 34 62  1  0  0  0  0
 34 63  1  0  0  0  0
 35 64  1  0  0  0  0
 35 65  1  0  0  0  0
 35 66  1  0  0  0  0
 36 67  1  0  0  0  0
 36 68  1  0  0  0  0
 37 39  1  0  0  0  0
 38 40  2  0  0  0  0
 39 41  2  0  0  0  0
 39 69  1  0  0  0  0
 40 41  1  0  0  0  0
 40 70  1  0  0  0  0
 41 71  1  0  0  0  0
M  END
> <PUBCHEM_COMPOUND_CID>
137288870

> <PUBCHEM_CONFORMER_RMSD>
1

> <PUBCHEM_CONFORMER_DIVERSEORDER>
1
15
11
20
7
17
19
13
6
9
14
3
10
4
18
8
5
16
12
2

> <PUBCHEM_MMFF94_PARTIAL_CHARGES>
48
1 -0.18
10 -0.62
11 0.37
12 0.3
13 0.37
14 0.3
15 0.41
17 0.09
18 0.62
19 0.43
2 -0.19
20 0.12
21 0.84
22 -0.15
23 -0.14
24 -0.14
25 -0.14
26 0.18
27 0.31
28 0.14
29 0.14
3 -0.57
30 -0.15
31 -0.15
33 -0.15
36 -0.3
37 0.08
38 0.19
39 -0.15
4 -0.57
40 -0.15
41 -0.15
5 -0.53
52 0.15
53 0.15
58 0.15
59 0.15
6 -0.79
60 0.15
67 0.15
68 0.15
69 0.15
7 -0.66
70 0.15
71 0.15
72 0.45
8 -0.29
9 -0.66

> <PUBCHEM_EFFECTIVE_ROTOR_COUNT>
8.2

> <PUBCHEM_PHARMACOPHORE_FEATURES>
12
1 3 acceptor
1 34 hydrophobe
1 35 hydrophobe
1 36 hydrophobe
1 4 acceptor
1 5 donor
1 9 donor
6 10 17 19 22 26 27 rings
6 20 23 24 30 31 33 rings
6 32 37 38 39 40 41 rings
6 6 7 11 12 13 14 rings
6 8 9 15 17 19 21 rings

> <PUBCHEM_HEAVY_ATOM_COUNT>
41

> <PUBCHEM_ATOM_DEF_STEREO_COUNT>
1

> <PUBCHEM_ATOM_UDEF_STEREO_COUNT>
0

> <PUBCHEM_BOND_DEF_STEREO_COUNT>
0

> <PUBCHEM_BOND_UDEF_STEREO_COUNT>
0

> <PUBCHEM_ISOTOPIC_ATOM_COUNT>
0

> <PUBCHEM_COMPONENT_COUNT>
1

> <PUBCHEM_CACTVS_TAUTO_COUNT>
-1

> <PUBCHEM_CONFORMER_ID>
082EDCA600000001

> <PUBCHEM_MMFF94_ENERGY>
151.2855

> <PUBCHEM_FEATURE_SELFOVERLAP>
60.925

> <PUBCHEM_SHAPE_FINGERPRINT>
10050765 1 18337110185221463812
10119406 146 18124878959024945398
11991303 11 18261112942209826893
12156800 1 18050811625339955073
12788726 201 18195817481610257138
13140716 1 18411139151662152888
13540713 5 18261689167965799372
13692115 27 18337955717820199794
13782708 43 17989202677643362910
13911987 19 18044923594101980917
14068700 675 18268427008957855279
14118638 360 18189057672129280484
14866123 147 18408889550966318011
15021287 119 17095246900146978436
15200665 1 18411142402835747505
15439362 3 17977941281228305054
15775530 1 17914601998202634112
15927050 60 18266740177811698831
19301679 30 18266187303619659987
19311894 1 18409169883402625892
21033648 29 12390142026536889218
22311459 1 18337107840084846148
244849 19 17273957173318047330
3383291 50 18202561765950199399
4073 2 18201434754226913018
5080951 261 18339063939810204030
513202 73 18335991968346384811
59755656 520 18269552750019531589
6669772 16 18194964028548437535
6691757 9 18271528589594410672

> <PUBCHEM_SHAPE_MULTIPOLES>
795.84
14.98
6.2
2.25
39.58
3.51
-0.01
4.45
-1.16
-12.62
-1.3
-1.87
-1.19
-0.89

> <PUBCHEM_SHAPE_SELFOVERLAP>
1727.121

> <PUBCHEM_SHAPE_VOLUME>
437.1

> <PUBCHEM_COORDINATE_TYPE>
2
5
10

$$$$
137278713
  -OEChem-05102415023D

 65 69  0     1  0  0  0  0  0999 V2000
    0.2111   -3.9091   -0.4180 Cl  0  0  0  0  0  0  0  0  0  0  0  0
   -3.4455    1.4274    2.0019 S   0  0  0  0  0  0  0  0  0  0  0  0
   -2.7306   -2.3319   -2.4822 F   0  0  0  0  0  0  0  0  0  0  0  0
    7.2977   -0.2714   -1.3488 O   0  0  0  0  0  0  0  0  0  0  0  0
   -0.4006    3.9208    0.8479 O   0  0  0  0  0  0  0  0  0  0  0  0
   -2.6286   -3.1543    2.2276 O   0  0  0  0  0  0  0  0  0  0  0  0
    2.8075    0.7808    0.1673 N   0  0  0  0  0  0  0  0  0  0  0  0
    5.3020   -0.4887   -0.1786 N   0  0  0  0  0  0  0  0  0  0  0  0
    1.1494    2.3362    0.4673 N   0  0  0  0  0  0  0  0  0  0  0  0
   -1.1798    1.7596    0.5632 N   0  0  0  0  0  0  0  0  0  0  0  0
   -1.8549   -0.5413    0.2008 N   0  0  0  0  0  0  0  0  0  0  0  0
   -4.6774    3.0903    0.4527 N   0  0  0  0  0  0  0  0  0  0  0  0
    3.5131    0.9437   -1.1153 C   0  0  2  0  0  0  0  0  0  0  0  0
    4.4705   -0.2325   -1.3547 C   0  0  0  0  0  0  0  0  0  0  0  0
    3.6188    0.4426    1.3418 C   0  0  0  0  0  0  0  0  0  0  0  0
    4.5243   -0.7455    1.0379 C   0  0  0  0  0  0  0  0  0  0  0  0
    1.4946    1.0931    0.2901 C   0  0  0  0  0  0  0  0  0  0  0  0
    4.2361    2.2909   -1.1530 C   0  0  0  0  0  0  0  0  0  0  0  0
    0.4712    0.0260    0.2136 C   0  0  0  0  0  0  0  0  0  0  0  0
    6.6869   -0.4938   -0.3021 C   0  0  0  0  0  0  0  0  0  0  0  0
   -0.8675    0.3825    0.3407 C   0  0  0  0  0  0  0  0  0  0  0  0
    0.7995   -1.3141   -0.0178 C   0  0  0  0  0  0  0  0  0  0  0  0
   -0.1605    2.7328    0.6216 C   0  0  0  0  0  0  0  0  0  0  0  0
   -2.5590    2.1316    0.7135 C   0  0  0  0  0  0  0  0  0  0  0  0
    7.4836   -0.7806    0.9071 C   0  0  0  0  0  0  0  0  0  0  0  0
   -0.2070   -2.2626   -0.1332 C   0  0  0  0  0  0  0  0  0  0  0  0
   -1.5100   -1.8277   -0.0221 C   0  0  0  0  0  0  0  0  0  0  0  0
   -3.3759    2.9852    0.0023 C   0  0  0  0  0  0  0  0  0  0  0  0
   -2.9831    3.7809   -1.1791 C   0  0  0  0  0  0  0  0  0  0  0  0
   -2.6461   -2.7161   -0.1360 C   0  0  0  0  0  0  0  0  0  0  0  0
   -3.0965    5.3046   -0.9444 C   0  0  0  0  0  0  0  0  0  0  0  0
   -3.7735    3.4008   -2.4520 C   0  0  0  0  0  0  0  0  0  0  0  0
    8.6698   -1.3769    0.7707 C   0  0  0  0  0  0  0  0  0  0  0  0
   -4.8278    2.3127    1.5018 C   0  0  0  0  0  0  0  0  0  0  0  0
   -3.1694   -3.3496    0.9911 C   0  0  0  0  0  0  0  0  0  0  0  0
   -3.2194   -2.9353   -1.3886 C   0  0  0  0  0  0  0  0  0  0  0  0
   -4.2664   -4.2023    0.8658 C   0  0  0  0  0  0  0  0  0  0  0  0
   -4.3163   -3.7879   -1.5141 C   0  0  0  0  0  0  0  0  0  0  0  0
   -4.8399   -4.4212   -0.3868 C   0  0  0  0  0  0  0  0  0  0  0  0
    2.7797    0.9407   -1.9325 H   0  0  0  0  0  0  0  0  0  0  0  0
    3.8984   -1.1495   -1.5428 H   0  0  0  0  0  0  0  0  0  0  0  0
    5.0854   -0.0515   -2.2426 H   0  0  0  0  0  0  0  0  0  0  0  0
    4.2169    1.3147    1.6304 H   0  0  0  0  0  0  0  0  0  0  0  0
    2.9759    0.1959    2.1951 H   0  0  0  0  0  0  0  0  0  0  0  0
    5.1549   -0.9586    1.9012 H   0  0  0  0  0  0  0  0  0  0  0  0
    3.9320   -1.6492    0.8547 H   0  0  0  0  0  0  0  0  0  0  0  0
    4.7259    2.4373   -2.1215 H   0  0  0  0  0  0  0  0  0  0  0  0
    5.0029    2.3691   -0.3754 H   0  0  0  0  0  0  0  0  0  0  0  0
    3.5325    3.1170   -1.0060 H   0  0  0  0  0  0  0  0  0  0  0  0
    1.8336   -1.6229   -0.1266 H   0  0  0  0  0  0  0  0  0  0  0  0
    7.1399   -0.4733    1.8853 H   0  0  0  0  0  0  0  0  0  0  0  0
   -1.9301    3.5819   -1.4142 H   0  0  0  0  0  0  0  0  0  0  0  0
   -4.1361    5.6023   -0.7676 H   0  0  0  0  0  0  0  0  0  0  0  0
   -2.7258    5.8593   -1.8127 H   0  0  0  0  0  0  0  0  0  0  0  0
   -2.5095    5.6085   -0.0710 H   0  0  0  0  0  0  0  0  0  0  0  0
   -4.8419    3.6133   -2.3346 H   0  0  0  0  0  0  0  0  0  0  0  0
   -3.6665    2.3320   -2.6676 H   0  0  0  0  0  0  0  0  0  0  0  0
   -3.4070    3.9609   -3.3187 H   0  0  0  0  0  0  0  0  0  0  0  0
    9.2799   -1.5740    1.6462 H   0  0  0  0  0  0  0  0  0  0  0  0
    9.0642   -1.6908   -0.1896 H   0  0  0  0  0  0  0  0  0  0  0  0
   -5.7697    2.2309    2.0267 H   0  0  0  0  0  0  0  0  0  0  0  0
   -4.6851   -4.7028    1.7348 H   0  0  0  0  0  0  0  0  0  0  0  0
   -4.7629   -3.9580   -2.4892 H   0  0  0  0  0  0  0  0  0  0  0  0
   -5.6941   -5.0848   -0.4847 H   0  0  0  0  0  0  0  0  0  0  0  0
   -3.1263   -3.6767    2.8797 H   0  0  0  0  0  0  0  0  0  0  0  0
  1 26  1  0  0  0  0
  2 24  1  0  0  0  0
  2 34  1  0  0  0  0
  3 36  1  0  0  0  0
  4 20  2  0  0  0  0
  5 23  2  0  0  0  0
  6 35  1  0  0  0  0
  6 65  1  0  0  0  0
  7 13  1  0  0  0  0
  7 15  1  0  0  0  0
  7 17  1  0  0  0  0
  8 14  1  0  0  0  0
  8 16  1  0  0  0  0
  8 20  1  0  0  0  0
  9 17  2  0  0  0  0
  9 23  1  0  0  0  0
 10 21  1  0  0  0  0
 10 23  1  0  0  0  0
 10 24  1  0  0  0  0
 11 21  2  0  0  0  0
 11 27  1  0  0  0  0
 12 28  1  0  0  0  0
 12 34  2  0  0  0  0
 13 14  1  0  0  0  0
 13 18  1  0  0  0  0
 13 40  1  0  0  0  0
 14 41  1  0  0  0  0
 14 42  1  0  0  0  0
 15 16  1  0  0  0  0
 15 43  1  0  0  0  0
 15 44  1  0  0  0  0
 16 45  1  0  0  0  0
 16 46  1  0  0  0  0
 17 19  1  0  0  0  0
 18 47  1  0  0  0  0
 18 48  1  0  0  0  0
 18 49  1  0  0  0  0
 19 21  1  0  0  0  0
 19 22  2  0  0  0  0
 20 25  1  0  0  0  0
 22 26  1  0  0  0  0
 22 50  1  0  0  0  0
 24 28  2  0  0  0  0
 25 33  2  0  0  0  0
 25 51  1  0  0  0  0
 26 27  2  0  0  0  0
 27 30  1  0  0  0  0
 28 29  1  0  0  0  0
 29 31  1  0  0  0  0
 29 32  1  0  0  0  0
 29 52  1  0  0  0  0
 30 35  2  0  0  0  0
 30 36  1  0  0  0  0
 31 53  1  0  0  0  0
 31 54  1  0  0  0  0
 31 55  1  0  0  0  0
 32 56  1  0  0  0  0
 32 57  1  0  0  0  0
 32 58  1  0  0  0  0
 33 59  1  0  0  0  0
 33 60  1  0  0  0  0
 34 61  1  0  0  0  0
 35 37  1  0  0  0  0
 36 38  2  0  0  0  0
 37 39  2  0  0  0  0
 37 62  1  0  0  0  0
 38 39  1  0  0  0  0
 38 63  1  0  0  0  0
 39 64  1  0  0  0  0
M  END
> <PUBCHEM_COMPOUND_CID>
137278713

> <PUBCHEM_CONFORMER_RMSD>
1

> <PUBCHEM_CONFORMER_DIVERSEORDER>
1
23
15
45
19
46
44
54
17
35
49
24
48
30
51
16
36
11
40
43
50
31
27
42
33
32
53
10
6
39
25
34
29
2
8
37
55
52
28
21
12
20
7
47
38
22
5
41
13
56
26
3
14
18
9
4

> <PUBCHEM_MMFF94_PARTIAL_CHARGES>
44
1 -0.18
10 -0.24
11 -0.62
12 -0.57
13 0.37
14 0.3
15 0.37
16 0.3
17 0.41
19 0.09
2 -0.08
20 0.62
21 0.43
22 -0.15
23 0.84
24 0.1
25 -0.14
26 0.18
27 0.31
28 0.05
29 0.18
3 -0.19
33 -0.3
34 0.23
35 0.08
36 0.19
37 -0.15
38 -0.15
39 -0.15
4 -0.57
5 -0.57
50 0.15
51 0.15
59 0.15
6 -0.53
60 0.15
61 0.15
62 0.15
63 0.15
64 0.15
65 0.45
7 -0.79
8 -0.66
9 -0.66

> <PUBCHEM_EFFECTIVE_ROTOR_COUNT>
7.2

> <PUBCHEM_PHARMACOPHORE_FEATURES>
12
1 12 acceptor
1 33 hydrophobe
1 4 acceptor
1 5 acceptor
1 6 donor
1 9 donor
3 29 31 32 hydrophobe
5 2 12 24 28 34 rings
6 11 19 21 22 26 27 rings
6 30 35 36 37 38 39 rings
6 7 8 13 14 15 16 rings
6 9 10 17 19 21 23 rings

> <PUBCHEM_HEAVY_ATOM_COUNT>
39

> <PUBCHEM_ATOM_DEF_STEREO_COUNT>
1

> <PUBCHEM_ATOM_UDEF_STEREO_COUNT>
0

> <PUBCHEM_BOND_DEF_STEREO_COUNT>
0

> <PUBCHEM_BOND_UDEF_STEREO_COUNT>
0

> <PUBCHEM_ISOTOPIC_ATOM_COUNT>
0

> <PUBCHEM_COMPONENT_COUNT>
1

> <PUBCHEM_CACTVS_TAUTO_COUNT>
-1

> <PUBCHEM_CONFORMER_ID>
082EB4F900000001

> <PUBCHEM_MMFF94_ENERGY>
132.9298

> <PUBCHEM_FEATURE_SELFOVERLAP>
60.925

> <PUBCHEM_SHAPE_FINGERPRINT>
10050765 1 18340207505208308992
10119406 146 18056484941941150094
10411042 1 18195806486568222307
11297750 10 18199740521860582784
11991303 11 18263083232307241901
12160290 23 18270385179511954073
12422481 6 17344654701558818511
12440605 4 18339361851316495067
12788726 201 18194968662970792570
13140716 1 18343024419106001224
13540713 4 18129362943462763824
13540713 5 18264502830958519140
13690498 29 18341056319314702294
13692115 27 18199194056007213978
13782708 43 17775285002383718658
140371 6 17616818077344256873
14347332 77 18339926029972739222
14725015 67 18269270325734125546
14866123 147 18411986870863557243
15021287 119 17458634402052493124
15131766 46 16011602435871143860
15276724 80 18126010604954152644
15439362 3 17907293252607393670
15927050 60 18268148652180519115
16628084 112 18264774431298806454
19301676 85 17478341833811018142
19301679 30 18267873954472518595
21639891 77 18201999949709947720
21641784 216 18047207507132716565
21703447 108 18196362844173898208
22311459 1 18340491045800467048
23536364 44 18338218475624866695
3103668 31 18336255821931402293
3388396 114 17756163515386263420
3504750 166 18270962448354343766
4015057 19 17203027630961056064
4409770 3 18336546028123366769
504843 32 18263077709237982589
5080951 261 18202272606960380998
513202 73 18340495567899921699
5171179 24 17915737784986516033
6669772 16 18056201263086898023
6691757 9 18198903613650460320
6698420 124 17772205110419015856
9961470 85 18123746453585111942

> <PUBCHEM_SHAPE_MULTIPOLES>
753.55
15.29
7.03
1.73
38.01
0.12
-0.33
-4.73
0.1
-15.56
-1.53
-1.39
0.2
-0.65

> <PUBCHEM_SHAPE_SELFOVERLAP>
1622.399

> <PUBCHEM_SHAPE_VOLUME>
421.1

> <PUBCHEM_COORDINATE_TYPE>
2
5
10

$$$$
146235786
  -OEChem-05102415023D

 71 75  0     1  0  0  0  0  0999 V2000
    0.3113   -3.9483   -0.2004 Cl  0  0  0  0  0  0  0  0  0  0  0  0
   -2.5858   -2.4760   -2.3968 F   0  0  0  0  0  0  0  0  0  0  0  0
    7.4191   -0.6241   -1.3550 O   0  0  0  0  0  0  0  0  0  0  0  0
   -0.2173    3.9519    0.5691 O   0  0  0  0  0  0  0  0  0  0  0  0
   -2.5488   -2.9909    2.3572 O   0  0  0  0  0  0  0  0  0  0  0  0
    2.9591    0.7386    0.1190 N   0  0  0  0  0  0  0  0  0  0  0  0
    5.4376   -0.6085   -0.1368 N   0  0  0  0  0  0  0  0  0  0  0  0
   -1.0203    1.7867    0.4079 N   0  0  0  0  0  0  0  0  0  0  0  0
    1.3168    2.3288    0.3044 N   0  0  0  0  0  0  0  0  0  0  0  0
   -1.7199   -0.5243    0.1789 N   0  0  0  0  0  0  0  0  0  0  0  0
   -4.3069    2.6484    1.9257 N   0  0  0  0  0  0  0  0  0  0  0  0
    3.6777    0.8188   -1.1600 C   0  0  2  0  0  0  0  0  0  0  0  0
    4.6089   -0.3861   -1.3209 C   0  0  0  0  0  0  0  0  0  0  0  0
    3.7495    0.4648    1.3197 C   0  0  0  0  0  0  0  0  0  0  0  0
    4.6836   -0.7251    1.1157 C   0  0  0  0  0  0  0  0  0  0  0  0
    1.6486    1.0733    0.2078 C   0  0  0  0  0  0  0  0  0  0  0  0
    4.4299    2.1458   -1.2640 C   0  0  0  0  0  0  0  0  0  0  0  0
    0.6127    0.0155    0.1851 C   0  0  0  0  0  0  0  0  0  0  0  0
    6.8170   -0.7279   -0.2849 C   0  0  0  0  0  0  0  0  0  0  0  0
   -0.7228    0.3947    0.2738 C   0  0  0  0  0  0  0  0  0  0  0  0
   -2.3965    2.1832    0.5189 C   0  0  0  0  0  0  0  0  0  0  0  0
    0.0104    2.7494    0.4188 C   0  0  0  0  0  0  0  0  0  0  0  0
    0.9270   -1.3401    0.0409 C   0  0  0  0  0  0  0  0  0  0  0  0
   -3.1481    2.4806   -0.6125 C   0  0  0  0  0  0  0  0  0  0  0  0
   -2.5560    2.3987   -1.9816 C   0  0  0  0  0  0  0  0  0  0  0  0
    7.6181   -1.0023    0.9247 C   0  0  0  0  0  0  0  0  0  0  0  0
   -0.0897   -2.2821   -0.0280 C   0  0  0  0  0  0  0  0  0  0  0  0
   -1.3884   -1.8260    0.0401 C   0  0  0  0  0  0  0  0  0  0  0  0
   -3.0170    2.2816    1.7539 C   0  0  0  0  0  0  0  0  0  0  0  0
   -4.4783    2.8618   -0.4764 C   0  0  0  0  0  0  0  0  0  0  0  0
   -2.5476    3.7608   -2.6990 C   0  0  0  0  0  0  0  0  0  0  0  0
   -3.2556    1.3466   -2.8614 C   0  0  0  0  0  0  0  0  0  0  0  0
   -2.5337   -2.7071   -0.0299 C   0  0  0  0  0  0  0  0  0  0  0  0
   -2.2635    1.9769    3.0082 C   0  0  0  0  0  0  0  0  0  0  0  0
   -5.0058    2.9297    0.8031 C   0  0  0  0  0  0  0  0  0  0  0  0
    8.8712   -0.5471    0.9850 C   0  0  0  0  0  0  0  0  0  0  0  0
   -3.0766   -3.2611    1.1292 C   0  0  0  0  0  0  0  0  0  0  0  0
   -3.0954   -3.0005   -1.2726 C   0  0  0  0  0  0  0  0  0  0  0  0
   -4.1813   -4.1088    1.0458 C   0  0  0  0  0  0  0  0  0  0  0  0
   -4.2000   -3.8481   -1.3560 C   0  0  0  0  0  0  0  0  0  0  0  0
   -4.7430   -4.4022   -0.1968 C   0  0  0  0  0  0  0  0  0  0  0  0
    2.9527    0.7862   -1.9841 H   0  0  0  0  0  0  0  0  0  0  0  0
    4.0147   -1.2985   -1.4567 H   0  0  0  0  0  0  0  0  0  0  0  0
    5.2249   -0.2741   -2.2194 H   0  0  0  0  0  0  0  0  0  0  0  0
    3.0952    0.2635    2.1766 H   0  0  0  0  0  0  0  0  0  0  0  0
    4.3335    1.3583    1.5701 H   0  0  0  0  0  0  0  0  0  0  0  0
    5.3357   -0.8058    1.9862 H   0  0  0  0  0  0  0  0  0  0  0  0
    4.1090   -1.6563    1.0521 H   0  0  0  0  0  0  0  0  0  0  0  0
    5.1944    2.2481   -0.4870 H   0  0  0  0  0  0  0  0  0  0  0  0
    3.7439    2.9937   -1.1652 H   0  0  0  0  0  0  0  0  0  0  0  0
    4.9280    2.2301   -2.2357 H   0  0  0  0  0  0  0  0  0  0  0  0
    1.9594   -1.6668   -0.0311 H   0  0  0  0  0  0  0  0  0  0  0  0
   -1.5068    2.0894   -1.9370 H   0  0  0  0  0  0  0  0  0  0  0  0
    7.2171   -1.6014    1.7311 H   0  0  0  0  0  0  0  0  0  0  0  0
   -5.1034    3.1027   -1.3290 H   0  0  0  0  0  0  0  0  0  0  0  0
   -3.5603    4.1272   -2.8982 H   0  0  0  0  0  0  0  0  0  0  0  0
   -2.0298    4.5148   -2.0957 H   0  0  0  0  0  0  0  0  0  0  0  0
   -2.0274    3.6852   -3.6602 H   0  0  0  0  0  0  0  0  0  0  0  0
   -4.2974    1.6123   -3.0702 H   0  0  0  0  0  0  0  0  0  0  0  0
   -2.7401    1.2460   -3.8227 H   0  0  0  0  0  0  0  0  0  0  0  0
   -3.2507    0.3653   -2.3742 H   0  0  0  0  0  0  0  0  0  0  0  0
   -2.8963    2.1310    3.8891 H   0  0  0  0  0  0  0  0  0  0  0  0
   -1.9344    0.9332    3.0197 H   0  0  0  0  0  0  0  0  0  0  0  0
   -1.3949    2.6347    3.1104 H   0  0  0  0  0  0  0  0  0  0  0  0
   -6.0384    3.2217    0.9635 H   0  0  0  0  0  0  0  0  0  0  0  0
    9.4824   -0.7595    1.8562 H   0  0  0  0  0  0  0  0  0  0  0  0
    9.3213    0.0454    0.1960 H   0  0  0  0  0  0  0  0  0  0  0  0
   -4.6153   -4.5478    1.9401 H   0  0  0  0  0  0  0  0  0  0  0  0
   -4.6372   -4.0764   -2.3235 H   0  0  0  0  0  0  0  0  0  0  0  0
   -5.6031   -5.0621   -0.2619 H   0  0  0  0  0  0  0  0  0  0  0  0
   -3.0600   -3.4647    3.0355 H   0  0  0  0  0  0  0  0  0  0  0  0
  1 27  1  0  0  0  0
  2 38  1  0  0  0  0
  3 19  2  0  0  0  0
  4 22  2  0  0  0  0
  5 37  1  0  0  0  0
  5 71  1  0  0  0  0
  6 12  1  0  0  0  0
  6 14  1  0  0  0  0
  6 16  1  0  0  0  0
  7 13  1  0  0  0  0
  7 15  1  0  0  0  0
  7 19  1  0  0  0  0
  8 20  1  0  0  0  0
  8 21  1  0  0  0  0
  8 22  1  0  0  0  0
  9 16  2  0  0  0  0
  9 22  1  0  0  0  0
 10 20  2  0  0  0  0
 10 28  1  0  0  0  0
 11 29  2  0  0  0  0
 11 35  1  0  0  0  0
 12 13  1  0  0  0  0
 12 17  1  0  0  0  0
 12 42  1  0  0  0  0
 13 43  1  0  0  0  0
 13 44  1  0  0  0  0
 14 15  1  0  0  0  0
 14 45  1  0  0  0  0
 14 46  1  0  0  0  0
 15 47  1  0  0  0  0
 15 48  1  0  0  0  0
 16 18  1  0  0  0  0
 17 49  1  0  0  0  0
 17 50  1  0  0  0  0
 17 51  1  0  0  0  0
 18 20  1  0  0  0  0
 18 23  2  0  0  0  0
 19 26  1  0  0  0  0
 21 24  2  0  0  0  0
 21 29  1  0  0  0  0
 23 27  1  0  0  0  0
 23 52  1  0  0  0  0
 24 25  1  0  0  0  0
 24 30  1  0  0  0  0
 25 31  1  0  0  0  0
 25 32  1  0  0  0  0
 25 53  1  0  0  0  0
 26 36  2  0  0  0  0
 26 54  1  0  0  0  0
 27 28  2  0  0  0  0
 28 33  1  0  0  0  0
 29 34  1  0  0  0  0
 30 35  2  0  0  0  0
 30 55  1  0  0  0  0
 31 56  1  0  0  0  0
 31 57  1  0  0  0  0
 31 58  1  0  0  0  0
 32 59  1  0  0  0  0
 32 60  1  0  0  0  0
 32 61  1  0  0  0  0
 33 37  2  0  0  0  0
 33 38  1  0  0  0  0
 34 62  1  0  0  0  0
 34 63  1  0  0  0  0
 34 64  1  0  0  0  0
 35 65  1  0  0  0  0
 36 66  1  0  0  0  0
 36 67  1  0  0  0  0
 37 39  1  0  0  0  0
 38 40  2  0  0  0  0
 39 41  2  0  0  0  0
 39 68  1  0  0  0  0
 40 41  1  0  0  0  0
 40 69  1  0  0  0  0
 41 70  1  0  0  0  0
M  END
> <PUBCHEM_COMPOUND_CID>
146235786

> <PUBCHEM_CONFORMER_RMSD>
1

> <PUBCHEM_CONFORMER_DIVERSEORDER>
2
19
34
15
24
33
11
31
38
18
39
28
36
29
17
21
37
30
27
16
25
32
12
13
23
20
22
26
8
35
10
6
1
3
14
9
5
4
7

> <PUBCHEM_MMFF94_PARTIAL_CHARGES>
47
1 -0.18
10 -0.62
11 -0.62
12 0.37
13 0.3
14 0.37
15 0.3
16 0.41
18 0.09
19 0.62
2 -0.19
20 0.43
21 0.12
22 0.84
23 -0.15
24 -0.14
25 0.14
26 -0.14
27 0.18
28 0.31
29 0.17
3 -0.57
30 -0.15
34 0.14
35 0.16
36 -0.3
37 0.08
38 0.19
39 -0.15
4 -0.57
40 -0.15
41 -0.15
5 -0.53
52 0.15
54 0.15
55 0.15
6 -0.79
65 0.15
66 0.15
67 0.15
68 0.15
69 0.15
7 -0.66
70 0.15
71 0.45
8 -0.29
9 -0.66

> <PUBCHEM_EFFECTIVE_ROTOR_COUNT>
7.2

> <PUBCHEM_PHARMACOPHORE_FEATURES>
12
1 11 acceptor
1 3 acceptor
1 36 hydrophobe
1 4 acceptor
1 5 donor
1 9 donor
3 25 31 32 hydrophobe
6 10 18 20 23 27 28 rings
6 11 21 24 29 30 35 rings
6 33 37 38 39 40 41 rings
6 6 7 12 13 14 15 rings
6 8 9 16 18 20 22 rings

> <PUBCHEM_HEAVY_ATOM_COUNT>
41

> <PUBCHEM_ATOM_DEF_STEREO_COUNT>
1

> <PUBCHEM_ATOM_UDEF_STEREO_COUNT>
0

> <PUBCHEM_BOND_DEF_STEREO_COUNT>
0

> <PUBCHEM_BOND_UDEF_STEREO_COUNT>
0

> <PUBCHEM_ISOTOPIC_ATOM_COUNT>
0

> <PUBCHEM_COMPONENT_COUNT>
1

> <PUBCHEM_CACTVS_TAUTO_COUNT>
-1

> <PUBCHEM_CONFORMER_ID>
08B7618A00000002

> <PUBCHEM_MMFF94_ENERGY>
155.2466

> <PUBCHEM_FEATURE_SELFOVERLAP>
60.925

> <PUBCHEM_SHAPE_FINGERPRINT>
10050765 1 18339926034436907784
10119406 146 18055077562847161934
10190108 129 18262815059288008491
11991303 11 18335140848036310045
12156800 1 17980522050173333725
12160290 23 18339344353929901425
12422481 6 17559138629448838151
12788726 201 18196941186751907730
131258 43 17755323488454610742
13140716 1 18413393150578130736
13540713 4 18198605800560477600
13540713 5 18264222455535647348
13583140 156 17095814213381464400
13690498 29 18336546122649538518
13692114 37 18131355185775779841
13692115 27 18338516472971538354
13782708 43 17775003514606476278
13911987 19 18191857921396296797
140371 6 17758682534989954488
14068700 675 18199183069449326271
14118638 360 18264210391399456060
14279260 333 18341038640924078014
14347332 77 18339645654549841366
14866123 147 18411425020458667467
15021287 119 17312828160940458492
15439362 3 17907858405852754934
15484559 13 18053934062222180805
15927050 60 18268995276165529179
19301676 85 17549839780693772350
19301679 30 18269002057708062122
19311894 1 18411139112927987968
20766409 102 18194687193144364524
21033648 29 11598634392147837330
21033650 10 15286177563467188550
21703447 108 18194108841131524448
22223350 30 18341608226712657096
22311459 1 18339365137414479000
23536364 44 18339908403273898215
23559900 14 18271800212744663536
244849 19 16916202469292088666
283562 15 18338799047502178811
3383291 50 18131348605453567015
4073 2 18131632258537573186
469060 322 18041566948511097317
5080951 261 18341600513077434926
513202 73 18339090392118777643
5171179 24 18057601173264497833
6669772 16 18124318207456339711
6691757 9 18201444623075595544
6698420 124 17914346679539261328
70251023 43 18051976114868756859

> <PUBCHEM_SHAPE_MULTIPOLES>
790.86
15.11
6.2
2.18
40.22
3.33
0.27
4.22
-0.49
-12.75
0.43
-2.25
-1.22
-0.65

> <PUBCHEM_SHAPE_SELFOVERLAP>
1718.245

> <PUBCHEM_SHAPE_VOLUME>
434.7

> <PUBCHEM_COORDINATE_TYPE>
2
5
10

$$$$
146235508
  -OEChem-05102415023D

 72 78  0     1  0  0  0  0  0999 V2000
    0.4821   -3.9666    0.0339 Cl  0  0  0  0  0  0  0  0  0  0  0  0
   -2.3486   -2.7468   -2.3918 F   0  0  0  0  0  0  0  0  0  0  0  0
   -0.1299    3.9649    0.0068 O   0  0  0  0  0  0  0  0  0  0  0  0
    7.6009   -0.6962   -1.2031 O   0  0  0  0  0  0  0  0  0  0  0  0
   -2.4709   -2.7940    2.3884 O   0  0  0  0  0  0  0  0  0  0  0  0
   -0.9112    1.7860    0.0320 N   0  0  0  0  0  0  0  0  0  0  0  0
   -4.2705    2.7609    1.2999 N   0  0  0  0  0  0  0  0  0  0  0  0
   -4.3258    2.7256   -1.1090 N   0  0  0  0  0  0  0  0  0  0  0  0
    3.0833    0.7568   -0.0196 N   0  0  0  0  0  0  0  0  0  0  0  0
    5.5788   -0.5826   -0.0591 N   0  0  0  0  0  0  0  0  0  0  0  0
    1.4241    2.3401   -0.0460 N   0  0  0  0  0  0  0  0  0  0  0  0
   -1.5858   -0.5436    0.0075 N   0  0  0  0  0  0  0  0  0  0  0  0
   -2.2733    2.2272    2.5489 C   0  0  0  0  0  0  0  0  0  0  0  0
   -2.3891    2.1484   -2.4322 C   0  0  0  0  0  0  0  0  0  0  0  0
   -3.0843    1.8961    3.7720 C   0  0  0  0  0  0  0  0  0  0  0  0
   -2.1961    0.8563    3.1635 C   0  0  0  0  0  0  0  0  0  0  0  0
   -2.3443    0.7590   -3.0071 C   0  0  0  0  0  0  0  0  0  0  0  0
   -3.2584    1.7827   -3.6041 C   0  0  0  0  0  0  0  0  0  0  0  0
   -2.9736    2.3938    1.2384 C   0  0  0  0  0  0  0  0  0  0  0  0
   -3.0273    2.3594   -1.0966 C   0  0  0  0  0  0  0  0  0  0  0  0
   -2.2933    2.1769    0.0576 C   0  0  0  0  0  0  0  0  0  0  0  0
   -4.8768    2.9069    0.1064 C   0  0  0  0  0  0  0  0  0  0  0  0
    3.8447    0.7191   -1.2756 C   0  0  2  0  0  0  0  0  0  0  0  0
   -0.5991    0.3908    0.0451 C   0  0  0  0  0  0  0  0  0  0  0  0
    1.7681    1.0847   -0.0079 C   0  0  0  0  0  0  0  0  0  0  0  0
    3.8340    0.6101    1.2278 C   0  0  0  0  0  0  0  0  0  0  0  0
    0.1115    2.7560   -0.0171 C   0  0  0  0  0  0  0  0  0  0  0  0
    0.7413    0.0189    0.0387 C   0  0  0  0  0  0  0  0  0  0  0  0
    4.7895   -0.4858   -1.2864 C   0  0  0  0  0  0  0  0  0  0  0  0
    4.7832   -0.5841    1.1729 C   0  0  0  0  0  0  0  0  0  0  0  0
    4.5903    2.0376   -1.4841 C   0  0  0  0  0  0  0  0  0  0  0  0
    1.0702   -1.3409    0.0387 C   0  0  0  0  0  0  0  0  0  0  0  0
   -1.2402   -1.8491    0.0082 C   0  0  0  0  0  0  0  0  0  0  0  0
    6.9633   -0.7013   -0.1486 C   0  0  0  0  0  0  0  0  0  0  0  0
    0.0633   -2.2959    0.0286 C   0  0  0  0  0  0  0  0  0  0  0  0
   -2.3760   -2.7448   -0.0132 C   0  0  0  0  0  0  0  0  0  0  0  0
    7.7245   -0.8476    1.1080 C   0  0  0  0  0  0  0  0  0  0  0  0
   -2.9543   -3.1886    1.1758 C   0  0  0  0  0  0  0  0  0  0  0  0
   -2.8927   -3.1643   -1.2393 C   0  0  0  0  0  0  0  0  0  0  0  0
    8.9714   -0.3754    1.1653 C   0  0  0  0  0  0  0  0  0  0  0  0
   -4.0493   -4.0520    1.1391 C   0  0  0  0  0  0  0  0  0  0  0  0
   -3.9876   -4.0276   -1.2759 C   0  0  0  0  0  0  0  0  0  0  0  0
   -4.5659   -4.4714   -0.0867 C   0  0  0  0  0  0  0  0  0  0  0  0
   -1.4240    2.8834    2.7258 H   0  0  0  0  0  0  0  0  0  0  0  0
   -1.5478    2.7958   -2.6697 H   0  0  0  0  0  0  0  0  0  0  0  0
   -4.1529    1.7359    3.6976 H   0  0  0  0  0  0  0  0  0  0  0  0
   -2.7737    2.3334    4.7140 H   0  0  0  0  0  0  0  0  0  0  0  0
   -2.6793    0.0254    2.6651 H   0  0  0  0  0  0  0  0  0  0  0  0
   -1.2882    0.5923    3.6919 H   0  0  0  0  0  0  0  0  0  0  0  0
   -1.4633    0.4756   -3.5699 H   0  0  0  0  0  0  0  0  0  0  0  0
   -2.8105   -0.0567   -2.4690 H   0  0  0  0  0  0  0  0  0  0  0  0
   -4.3226    1.6285   -3.4742 H   0  0  0  0  0  0  0  0  0  0  0  0
   -2.9924    2.1897   -4.5730 H   0  0  0  0  0  0  0  0  0  0  0  0
    3.1486    0.5985   -2.1163 H   0  0  0  0  0  0  0  0  0  0  0  0
   -5.9189    3.2011    0.1260 H   0  0  0  0  0  0  0  0  0  0  0  0
    3.1522    0.4866    2.0780 H   0  0  0  0  0  0  0  0  0  0  0  0
    4.4026    1.5299    1.4088 H   0  0  0  0  0  0  0  0  0  0  0  0
    4.2070   -1.4133   -1.3518 H   0  0  0  0  0  0  0  0  0  0  0  0
    5.4352   -0.4556   -2.1705 H   0  0  0  0  0  0  0  0  0  0  0  0
    5.4056   -0.5724    2.0683 H   0  0  0  0  0  0  0  0  0  0  0  0
    4.2178   -1.5230    1.1818 H   0  0  0  0  0  0  0  0  0  0  0  0
    5.3271    2.2234   -0.6958 H   0  0  0  0  0  0  0  0  0  0  0  0
    3.8952    2.8837   -1.4919 H   0  0  0  0  0  0  0  0  0  0  0  0
    5.1208    2.0317   -2.4422 H   0  0  0  0  0  0  0  0  0  0  0  0
    2.1068   -1.6621    0.0336 H   0  0  0  0  0  0  0  0  0  0  0  0
    7.3004   -1.3692    1.9555 H   0  0  0  0  0  0  0  0  0  0  0  0
    9.5539   -0.4951    2.0730 H   0  0  0  0  0  0  0  0  0  0  0  0
    9.4440    0.1418    0.3374 H   0  0  0  0  0  0  0  0  0  0  0  0
   -4.5105   -4.4060    2.0573 H   0  0  0  0  0  0  0  0  0  0  0  0
   -4.3897   -4.3539   -2.2304 H   0  0  0  0  0  0  0  0  0  0  0  0
   -5.4185   -5.1435   -0.1155 H   0  0  0  0  0  0  0  0  0  0  0  0
   -3.0035   -3.2019    3.0925 H   0  0  0  0  0  0  0  0  0  0  0  0
  1 35  1  0  0  0  0
  2 39  1  0  0  0  0
  3 27  2  0  0  0  0
  4 34  2  0  0  0  0
  5 38  1  0  0  0  0
  5 72  1  0  0  0  0
  6 21  1  0  0  0  0
  6 24  1  0  0  0  0
  6 27  1  0  0  0  0
  7 19  2  0  0  0  0
  7 22  1  0  0  0  0
  8 20  1  0  0  0  0
  8 22  2  0  0  0  0
  9 23  1  0  0  0  0
  9 25  1  0  0  0  0
  9 26  1  0  0  0  0
 10 29  1  0  0  0  0
 10 30  1  0  0  0  0
 10 34  1  0  0  0  0
 11 25  2  0  0  0  0
 11 27  1  0  0  0  0
 12 24  2  0  0  0  0
 12 33  1  0  0  0  0
 13 15  1  0  0  0  0
 13 16  1  0  0  0  0
 13 19  1  0  0  0  0
 13 44  1  0  0  0  0
 14 17  1  0  0  0  0
 14 18  1  0  0  0  0
 14 20  1  0  0  0  0
 14 45  1  0  0  0  0
 15 16  1  0  0  0  0
 15 46  1  0  0  0  0
 15 47  1  0  0  0  0
 16 48  1  0  0  0  0
 16 49  1  0  0  0  0
 17 18  1  0  0  0  0
 17 50  1  0  0  0  0
 17 51  1  0  0  0  0
 18 52  1  0  0  0  0
 18 53  1  0  0  0  0
 19 21  1  0  0  0  0
 20 21  2  0  0  0  0
 22 55  1  0  0  0  0
 23 29  1  0  0  0  0
 23 31  1  0  0  0  0
 23 54  1  0  0  0  0
 24 28  1  0  0  0  0
 25 28  1  0  0  0  0
 26 30  1  0  0  0  0
 26 56  1  0  0  0  0
 26 57  1  0  0  0  0
 28 32  2  0  0  0  0
 29 58  1  0  0  0  0
 29 59  1  0  0  0  0
 30 60  1  0  0  0  0
 30 61  1  0  0  0  0
 31 62  1  0  0  0  0
 31 63  1  0  0  0  0
 31 64  1  0  0  0  0
 32 35  1  0  0  0  0
 32 65  1  0  0  0  0
 33 35  2  0  0  0  0
 33 36  1  0  0  0  0
 34 37  1  0  0  0  0
 36 38  2  0  0  0  0
 36 39  1  0  0  0  0
 37 40  2  0  0  0  0
 37 66  1  0  0  0  0
 38 41  1  0  0  0  0
 39 42  2  0  0  0  0
 40 67  1  0  0  0  0
 40 68  1  0  0  0  0
 41 43  2  0  0  0  0
 41 69  1  0  0  0  0
 42 43  1  0  0  0  0
 42 70  1  0  0  0  0
 43 71  1  0  0  0  0
M  END
> <PUBCHEM_COMPOUND_CID>
146235508

> <PUBCHEM_CONFORMER_RMSD>
1.2

> <PUBCHEM_CONFORMER_DIVERSEORDER>
1
14
10
13
2
6
4
9
5
12
8
7
11
3

> <PUBCHEM_MMFF94_PARTIAL_CHARGES>
60
1 -0.18
10 -0.66
11 -0.66
12 -0.62
13 -0.07
14 -0.07
15 -0.2
16 -0.2
17 -0.2
18 -0.2
19 0.28
2 -0.19
20 0.28
21 0.12
22 0.47
23 0.37
24 0.43
25 0.41
26 0.37
27 0.84
28 0.09
29 0.3
3 -0.57
30 0.3
32 -0.15
33 0.31
34 0.62
35 0.18
37 -0.14
38 0.08
39 0.19
4 -0.57
40 -0.3
41 -0.15
42 -0.15
43 -0.15
44 0.1
45 0.1
46 0.1
47 0.1
48 0.1
49 0.1
5 -0.53
50 0.1
51 0.1
52 0.1
53 0.1
55 0.15
6 -0.29
65 0.15
66 0.15
67 0.15
68 0.15
69 0.15
7 -0.62
70 0.15
71 0.15
72 0.45
8 -0.62
9 -0.79

> <PUBCHEM_EFFECTIVE_ROTOR_COUNT>
9.4

> <PUBCHEM_PHARMACOPHORE_FEATURES>
12
1 11 donor
1 3 acceptor
1 4 acceptor
1 40 hydrophobe
1 5 donor
1 7 acceptor
3 7 8 22 cation
6 12 24 28 32 33 35 rings
6 36 38 39 41 42 43 rings
6 6 11 24 25 27 28 rings
6 7 8 19 20 21 22 rings
6 9 10 23 26 29 30 rings

> <PUBCHEM_HEAVY_ATOM_COUNT>
43

> <PUBCHEM_ATOM_DEF_STEREO_COUNT>
1

> <PUBCHEM_ATOM_UDEF_STEREO_COUNT>
0

> <PUBCHEM_BOND_DEF_STEREO_COUNT>
0

> <PUBCHEM_BOND_UDEF_STEREO_COUNT>
0

> <PUBCHEM_ISOTOPIC_ATOM_COUNT>
0

> <PUBCHEM_COMPONENT_COUNT>
1

> <PUBCHEM_CACTVS_TAUTO_COUNT>
-1

> <PUBCHEM_CONFORMER_ID>
08B7607400000001

> <PUBCHEM_MMFF94_ENERGY>
162.8885

> <PUBCHEM_FEATURE_SELFOVERLAP>
60.925

> <PUBCHEM_SHAPE_FINGERPRINT>
10119406 146 18125441909041663854
11007060 377 18129658595926084200
11991303 11 18260827064733356349
12156800 1 17902751402386407489
12633046 712 17702965668537674272
12655364 131 17697316218596009418
12788726 201 18196095662357659894
131258 38 17047114970750135691
13140716 1 18411984680520153768
13583140 156 17023475148777818016
13692115 27 18268438008464130134
13782708 43 17465377912924879731
13911987 19 18044924693529147693
140371 6 17831863825838002768
14068700 675 18199184168982033487
14118638 360 18191026901775994252
15324884 4 17465418260136405401
15439362 3 17978504231313634190
16114785 44 16988286382805099403
18603816 31 18114455682823486048
19301679 30 18267312108431122370
19311894 1 18410012117888796492
22223350 30 18412537721920661544
22311459 1 18337953368837403916
23536364 44 18338780308448921831
23559900 14 18341883092499602704
244849 19 17130967885191342506
3383291 50 18131063836157819303
4073 2 18130784539409716678
469060 322 17822577221706681701
484985 159 18410011039646205323
5080951 261 18412816993589341142
508180 173 17983829424448023047
513202 73 18337118972033461603
57527293 21 16953419812532376489
57527306 92 17489301929125477209
57527452 28 18059288756917180333
6669772 16 18194402182317234695
6691757 9 18200880573768756400

> <PUBCHEM_SHAPE_MULTIPOLES>
827.04
14.74
5.74
2.82
42.53
4.31
-0.33
3.8
-1.19
-11.24
0.05
-3.7
-1.74
-0.77

> <PUBCHEM_SHAPE_SELFOVERLAP>
1814.659

> <PUBCHEM_SHAPE_VOLUME>
449.1

> <PUBCHEM_COORDINATE_TYPE>
2
5
10

$$$$
146236012
  -OEChem-05102415023D

 68 72  0     1  0  0  0  0  0999 V2000
    0.2129   -3.9360   -0.4836 Cl  0  0  0  0  0  0  0  0  0  0  0  0
   -2.5666   -3.1927    2.4796 Cl  0  0  0  0  0  0  0  0  0  0  0  0
    7.2950   -0.4841   -1.3952 O   0  0  0  0  0  0  0  0  0  0  0  0
   -0.3701    3.8808    0.8742 O   0  0  0  0  0  0  0  0  0  0  0  0
    2.8281    0.7328    0.1817 N   0  0  0  0  0  0  0  0  0  0  0  0
    5.3156   -0.5737   -0.1768 N   0  0  0  0  0  0  0  0  0  0  0  0
   -1.1581    1.7279    0.5528 N   0  0  0  0  0  0  0  0  0  0  0  0
    1.1750    2.2930    0.4873 N   0  0  0  0  0  0  0  0  0  0  0  0
   -1.8418   -0.5645    0.1527 N   0  0  0  0  0  0  0  0  0  0  0  0
    3.5439    0.9134   -1.0886 C   0  0  2  0  0  0  0  0  0  0  0  0
    4.4833   -0.2694   -1.3401 C   0  0  0  0  0  0  0  0  0  0  0  0
    3.6225    0.3759    1.3577 C   0  0  0  0  0  0  0  0  0  0  0  0
    4.5646   -0.7888    1.0643 C   0  0  0  0  0  0  0  0  0  0  0  0
    1.5154    1.0506    0.2969 C   0  0  0  0  0  0  0  0  0  0  0  0
    4.2865    2.2499   -1.0941 C   0  0  0  0  0  0  0  0  0  0  0  0
    0.4870   -0.0099    0.1964 C   0  0  0  0  0  0  0  0  0  0  0  0
    6.6956   -0.6718   -0.3351 C   0  0  0  0  0  0  0  0  0  0  0  0
   -0.8510    0.3520    0.3148 C   0  0  0  0  0  0  0  0  0  0  0  0
   -0.1342    2.6945    0.6343 C   0  0  0  0  0  0  0  0  0  0  0  0
   -2.5369    2.1052    0.6947 C   0  0  0  0  0  0  0  0  0  0  0  0
    0.8106   -1.3487   -0.0489 C   0  0  0  0  0  0  0  0  0  0  0  0
   -3.2934    2.4818   -0.4149 C   0  0  0  0  0  0  0  0  0  0  0  0
   -2.6977    2.5049   -1.7851 C   0  0  0  0  0  0  0  0  0  0  0  0
    7.5007   -1.0299    0.8497 C   0  0  0  0  0  0  0  0  0  0  0  0
   -0.1996   -2.2902   -0.1867 C   0  0  0  0  0  0  0  0  0  0  0  0
   -1.5013   -1.8498   -0.0833 C   0  0  0  0  0  0  0  0  0  0  0  0
   -3.1178    2.0919    1.9629 C   0  0  0  0  0  0  0  0  0  0  0  0
   -4.6308    2.8452   -0.2565 C   0  0  0  0  0  0  0  0  0  0  0  0
   -3.3888    1.5161   -2.7415 C   0  0  0  0  0  0  0  0  0  0  0  0
   -2.6968    3.9163   -2.3999 C   0  0  0  0  0  0  0  0  0  0  0  0
   -2.6405   -2.7313   -0.2175 C   0  0  0  0  0  0  0  0  0  0  0  0
   -4.4551    2.4551    2.1212 C   0  0  0  0  0  0  0  0  0  0  0  0
   -5.2117    2.8317    1.0116 C   0  0  0  0  0  0  0  0  0  0  0  0
    8.7506   -0.5715    0.9423 C   0  0  0  0  0  0  0  0  0  0  0  0
   -3.1973   -3.3866    0.8809 C   0  0  0  0  0  0  0  0  0  0  0  0
   -3.1825   -2.9177   -1.4892 C   0  0  0  0  0  0  0  0  0  0  0  0
   -4.2960   -4.2283    0.7076 C   0  0  0  0  0  0  0  0  0  0  0  0
   -4.2812   -3.7594   -1.6625 C   0  0  0  0  0  0  0  0  0  0  0  0
   -4.8380   -4.4147   -0.5642 C   0  0  0  0  0  0  0  0  0  0  0  0
    2.8178    0.9373   -1.9120 H   0  0  0  0  0  0  0  0  0  0  0  0
    5.0970   -0.0862   -2.2285 H   0  0  0  0  0  0  0  0  0  0  0  0
    3.8953   -1.1734   -1.5429 H   0  0  0  0  0  0  0  0  0  0  0  0
    2.9711    0.1064    2.1979 H   0  0  0  0  0  0  0  0  0  0  0  0
    4.2006    1.2523    1.6734 H   0  0  0  0  0  0  0  0  0  0  0  0
    5.2187   -0.9296    1.9256 H   0  0  0  0  0  0  0  0  0  0  0  0
    3.9964   -1.7167    0.9321 H   0  0  0  0  0  0  0  0  0  0  0  0
    5.0517    2.2993   -0.3125 H   0  0  0  0  0  0  0  0  0  0  0  0
    3.5948    3.0831   -0.9315 H   0  0  0  0  0  0  0  0  0  0  0  0
    4.7824    2.4100   -2.0574 H   0  0  0  0  0  0  0  0  0  0  0  0
    1.8452   -1.6617   -0.1463 H   0  0  0  0  0  0  0  0  0  0  0  0
   -1.6466    2.1999   -1.7612 H   0  0  0  0  0  0  0  0  0  0  0  0
    7.1052   -1.6905    1.6096 H   0  0  0  0  0  0  0  0  0  0  0  0
   -2.5382    1.8003    2.8351 H   0  0  0  0  0  0  0  0  0  0  0  0
   -5.2414    3.1421   -1.1047 H   0  0  0  0  0  0  0  0  0  0  0  0
   -4.4317    1.7897   -2.9334 H   0  0  0  0  0  0  0  0  0  0  0  0
   -2.8704    1.4897   -3.7062 H   0  0  0  0  0  0  0  0  0  0  0  0
   -3.3786    0.5017   -2.3279 H   0  0  0  0  0  0  0  0  0  0  0  0
   -3.7113    4.2899   -2.5753 H   0  0  0  0  0  0  0  0  0  0  0  0
   -2.1859    4.6271   -1.7407 H   0  0  0  0  0  0  0  0  0  0  0  0
   -2.1731    3.9154   -3.3622 H   0  0  0  0  0  0  0  0  0  0  0  0
   -4.9075    2.4446    3.1085 H   0  0  0  0  0  0  0  0  0  0  0  0
   -6.2530    3.1143    1.1352 H   0  0  0  0  0  0  0  0  0  0  0  0
    9.3648   -0.8440    1.7945 H   0  0  0  0  0  0  0  0  0  0  0  0
    9.1952    0.0814    0.1992 H   0  0  0  0  0  0  0  0  0  0  0  0
   -2.7629   -2.4145   -2.3574 H   0  0  0  0  0  0  0  0  0  0  0  0
   -4.7422   -4.7467    1.5525 H   0  0  0  0  0  0  0  0  0  0  0  0
   -4.7035   -3.9044   -2.6526 H   0  0  0  0  0  0  0  0  0  0  0  0
   -5.6935   -5.0699   -0.6994 H   0  0  0  0  0  0  0  0  0  0  0  0
  1 25  1  0  0  0  0
  2 35  1  0  0  0  0
  3 17  2  0  0  0  0
  4 19  2  0  0  0  0
  5 10  1  0  0  0  0
  5 12  1  0  0  0  0
  5 14  1  0  0  0  0
  6 11  1  0  0  0  0
  6 13  1  0  0  0  0
  6 17  1  0  0  0  0
  7 18  1  0  0  0  0
  7 19  1  0  0  0  0
  7 20  1  0  0  0  0
  8 14  2  0  0  0  0
  8 19  1  0  0  0  0
  9 18  2  0  0  0  0
  9 26  1  0  0  0  0
 10 11  1  0  0  0  0
 10 15  1  0  0  0  0
 10 40  1  0  0  0  0
 11 41  1  0  0  0  0
 11 42  1  0  0  0  0
 12 13  1  0  0  0  0
 12 43  1  0  0  0  0
 12 44  1  0  0  0  0
 13 45  1  0  0  0  0
 13 46  1  0  0  0  0
 14 16  1  0  0  0  0
 15 47  1  0  0  0  0
 15 48  1  0  0  0  0
 15 49  1  0  0  0  0
 16 18  1  0  0  0  0
 16 21  2  0  0  0  0
 17 24  1  0  0  0  0
 20 22  1  0  0  0  0
 20 27  2  0  0  0  0
 21 25  1  0  0  0  0
 21 50  1  0  0  0  0
 22 23  1  0  0  0  0
 22 28  2  0  0  0  0
 23 29  1  0  0  0  0
 23 30  1  0  0  0  0
 23 51  1  0  0  0  0
 24 34  2  0  0  0  0
 24 52  1  0  0  0  0
 25 26  2  0  0  0  0
 26 31  1  0  0  0  0
 27 32  1  0  0  0  0
 27 53  1  0  0  0  0
 28 33  1  0  0  0  0
 28 54  1  0  0  0  0
 29 55  1  0  0  0  0
 29 56  1  0  0  0  0
 29 57  1  0  0  0  0
 30 58  1  0  0  0  0
 30 59  1  0  0  0  0
 30 60  1  0  0  0  0
 31 35  1  0  0  0  0
 31 36  2  0  0  0  0
 32 33  2  0  0  0  0
 32 61  1  0  0  0  0
 33 62  1  0  0  0  0
 34 63  1  0  0  0  0
 34 64  1  0  0  0  0
 35 37  2  0  0  0  0
 36 38  1  0  0  0  0
 36 65  1  0  0  0  0
 37 39  1  0  0  0  0
 37 66  1  0  0  0  0
 38 39  2  0  0  0  0
 38 67  1  0  0  0  0
 39 68  1  0  0  0  0
M  END
> <PUBCHEM_COMPOUND_CID>
146236012

> <PUBCHEM_CONFORMER_RMSD>
1

> <PUBCHEM_CONFORMER_DIVERSEORDER>
1
21
35
24
34
27
16
18
36
31
8
30
26
11
22
29
33
25
20
23
7
10
3
19
9
28
13
17
12
14
6
15
2
32
5
4

> <PUBCHEM_MMFF94_PARTIAL_CHARGES>
47
1 -0.18
10 0.37
11 0.3
12 0.37
13 0.3
14 0.41
16 0.09
17 0.62
18 0.43
19 0.84
2 -0.18
20 0.12
21 -0.15
22 -0.14
23 0.14
24 -0.14
25 0.18
26 0.31
27 -0.15
28 -0.15
3 -0.57
32 -0.15
33 -0.15
34 -0.3
35 0.18
36 -0.15
37 -0.15
38 -0.15
39 -0.15
4 -0.57
5 -0.79
50 0.15
52 0.15
53 0.15
54 0.15
6 -0.66
61 0.15
62 0.15
63 0.15
64 0.15
65 0.15
66 0.15
67 0.15
68 0.15
7 -0.29
8 -0.66
9 -0.62

> <PUBCHEM_EFFECTIVE_ROTOR_COUNT>
7.2

> <PUBCHEM_PHARMACOPHORE_FEATURES>
10
1 3 acceptor
1 34 hydrophobe
1 4 acceptor
1 8 donor
3 23 29 30 hydrophobe
6 20 22 27 28 32 33 rings
6 31 35 36 37 38 39 rings
6 5 6 10 11 12 13 rings
6 7 8 14 16 18 19 rings
6 9 16 18 21 25 26 rings

> <PUBCHEM_HEAVY_ATOM_COUNT>
39

> <PUBCHEM_ATOM_DEF_STEREO_COUNT>
1

> <PUBCHEM_ATOM_UDEF_STEREO_COUNT>
0

> <PUBCHEM_BOND_DEF_STEREO_COUNT>
0

> <PUBCHEM_BOND_UDEF_STEREO_COUNT>
0

> <PUBCHEM_ISOTOPIC_ATOM_COUNT>
0

> <PUBCHEM_COMPONENT_COUNT>
1

> <PUBCHEM_CACTVS_TAUTO_COUNT>
-1

> <PUBCHEM_CONFORMER_ID>
08B7626C00000001

> <PUBCHEM_MMFF94_ENERGY>
151.4036

> <PUBCHEM_FEATURE_SELFOVERLAP>
50.775

> <PUBCHEM_SHAPE_FINGERPRINT>
10050765 1 18341051938575407768
10119406 146 18055641612301622518
10190108 129 18263096538607172259
10411042 1 18197213865688720547
11297750 10 18197206151737455576
11331351 85 17984705777980377519
11991303 11 18335140843714962431
12156800 1 17981365384224035501
12160290 23 18339061792373918217
12788726 201 18196094566993306226
131258 43 17756166818104765694
13140716 1 18342741836117424880
13540713 4 18199731696151215000
13540713 5 18264502835169109908
13583140 156 17023469637881122688
13690498 29 18337107972991150718
13692115 27 18338795753072254602
13782708 43 17703792548727238926
13911987 19 18192702350668888269
14068700 675 18200027494458663975
14118638 360 18264211495148022508
14279260 333 18271232846525690670
14347332 77 18339363080024599190
14866123 147 18412269449757645739
15021287 119 17313109640127753388
15131766 46 16156846814157584652
15219462 58 15696066646374392600
15297060 5 18130222653906890266
15439362 3 17908138781291490086
15927050 60 18269840804970853923
19301676 85 17549841983948691686
19301679 30 18269000962496702371
19311894 1 18412265021245423696
20511986 3 18040708140342068136
21639891 77 18202001053411008744
21703447 108 18194671795327178520
22223350 30 18342734130777291016
22311459 1 18340491041521323976
23536364 44 18341033208143402447
23559900 14 18272927216426452784
23576562 1 18187370955945207740
244849 19 16916485047959336858
283562 15 18267020733818174755
3383291 50 18201998828808099631
4015057 19 17631996608086112936
4073 2 18131069312826378170
5080951 261 18342162367640155030
513202 73 18337964492211922259
5171179 24 17986106529285434321
6669772 16 18125444111668686167
6677587 24 15945360979535001237
6691757 9 18201443523474251537
6698420 124 17843134614121957424
70251023 43 18051976114969016163

> <PUBCHEM_SHAPE_MULTIPOLES>
769.7
15.44
6.31
2
38.76
3.06
0.29
3.81
-0.56
-13.27
0.58
-2.01
-0.75
-0.85

> <PUBCHEM_SHAPE_SELFOVERLAP>
1659.154

> <PUBCHEM_SHAPE_VOLUME>
424.6

> <PUBCHEM_COORDINATE_TYPE>
2
5
10

$$$$
