49830334
  -OEChem-05102415013D

 36 38  0     0  0  0  0  0  0999 V2000
   -1.5358    4.2767    0.7224 Cl  0  0  0  0  0  0  0  0  0  0  0  0
   -5.1203   -1.9440   -0.8166 O   0  0  0  0  0  0  0  0  0  0  0  0
    3.6945    0.4092   -1.6279 N   0  0  0  0  0  0  0  0  0  0  0  0
   -2.9167   -0.4677    0.1838 N   0  0  0  0  0  0  0  0  0  0  0  0
    4.8816   -1.2216   -0.3108 N   0  0  0  0  0  0  0  0  0  0  0  0
   -2.1588    1.7788    0.4187 N   0  0  0  0  0  0  0  0  0  0  0  0
    1.7706    0.5221   -0.5160 C   0  0  0  0  0  0  0  0  0  0  0  0
    2.6095   -0.4168    0.1406 C   0  0  0  0  0  0  0  0  0  0  0  0
    0.4380    0.9481   -0.1981 C   0  0  0  0  0  0  0  0  0  0  0  0
    3.8009   -0.4637   -0.5773 C   0  0  0  0  0  0  0  0  0  0  0  0
    2.4648    1.0143   -1.6000 C   0  0  0  0  0  0  0  0  0  0  0  0
   -0.6004    0.0239   -0.1613 C   0  0  0  0  0  0  0  0  0  0  0  0
   -1.8691    0.4860    0.1493 C   0  0  0  0  0  0  0  0  0  0  0  0
    2.5033   -1.2434    1.2711 C   0  0  0  0  0  0  0  0  0  0  0  0
    0.1794    2.2871    0.0734 C   0  0  0  0  0  0  0  0  0  0  0  0
   -4.2656   -0.1191    0.4905 C   0  0  0  0  0  0  0  0  0  0  0  0
   -5.1387   -1.3623    0.4809 C   0  0  0  0  0  0  0  0  0  0  0  0
   -1.1242    2.6480    0.3737 C   0  0  0  0  0  0  0  0  0  0  0  0
    3.5939   -2.0491    1.5929 C   0  0  0  0  0  0  0  0  0  0  0  0
    4.7235   -1.9967    0.7874 C   0  0  0  0  0  0  0  0  0  0  0  0
   -5.9303   -3.1098   -0.8765 C   0  0  0  0  0  0  0  0  0  0  0  0
    2.1999    1.7381   -2.3593 H   0  0  0  0  0  0  0  0  0  0  0  0
    4.4131    0.5801   -2.3175 H   0  0  0  0  0  0  0  0  0  0  0  0
   -0.4244   -1.0274   -0.3723 H   0  0  0  0  0  0  0  0  0  0  0  0
    1.6064   -1.2609    1.8818 H   0  0  0  0  0  0  0  0  0  0  0  0
    0.9706    3.0313    0.0567 H   0  0  0  0  0  0  0  0  0  0  0  0
   -4.6401    0.5907   -0.2567 H   0  0  0  0  0  0  0  0  0  0  0  0
   -4.3265    0.3543    1.4770 H   0  0  0  0  0  0  0  0  0  0  0  0
   -2.7414   -1.3407   -0.3038 H   0  0  0  0  0  0  0  0  0  0  0  0
   -6.1668   -1.0882    0.7442 H   0  0  0  0  0  0  0  0  0  0  0  0
   -4.7697   -2.0907    1.2131 H   0  0  0  0  0  0  0  0  0  0  0  0
    3.5596   -2.7043    2.4567 H   0  0  0  0  0  0  0  0  0  0  0  0
    5.5831   -2.6184    1.0237 H   0  0  0  0  0  0  0  0  0  0  0  0
   -5.8796   -3.5123   -1.8917 H   0  0  0  0  0  0  0  0  0  0  0  0
   -6.9726   -2.8652   -0.6497 H   0  0  0  0  0  0  0  0  0  0  0  0
   -5.5611   -3.8697   -0.1810 H   0  0  0  0  0  0  0  0  0  0  0  0
  1 18  1  0  0  0  0
  2 17  1  0  0  0  0
  2 21  1  0  0  0  0
  3 10  1  0  0  0  0
  3 11  1  0  0  0  0
  3 23  1  0  0  0  0
  4 13  1  0  0  0  0
  4 16  1  0  0  0  0
  4 29  1  0  0  0  0
  5 10  1  0  0  0  0
  5 20  2  0  0  0  0
  6 13  2  0  0  0  0
  6 18  1  0  0  0  0
  7  8  1  0  0  0  0
  7  9  1  0  0  0  0
  7 11  2  0  0  0  0
  8 10  2  0  0  0  0
  8 14  1  0  0  0  0
  9 12  2  0  0  0  0
  9 15  1  0  0  0  0
 11 22  1  0  0  0  0
 12 13  1  0  0  0  0
 12 24  1  0  0  0  0
 14 19  2  0  0  0  0
 14 25  1  0  0  0  0
 15 18  2  0  0  0  0
 15 26  1  0  0  0  0
 16 17  1  0  0  0  0
 16 27  1  0  0  0  0
 16 28  1  0  0  0  0
 17 30  1  0  0  0  0
 17 31  1  0  0  0  0
 19 20  1  0  0  0  0
 19 32  1  0  0  0  0
 20 33  1  0  0  0  0
 21 34  1  0  0  0  0
 21 35  1  0  0  0  0
 21 36  1  0  0  0  0
M  END
> <PUBCHEM_COMPOUND_CID>
49830334

> <PUBCHEM_CONFORMER_RMSD>
0.8

> <PUBCHEM_CONFORMER_DIVERSEORDER>
1
26
20
18
22
21
15
7
47
12
53
27
3
37
13
49
2
11
39
10
48
43
31
19
23
30
46
34
5
9
38
17
25
45
50
40
35
42
44
41
33
14
51
6
28
24
36
52
4
29
8
16
32

> <PUBCHEM_MMFF94_PARTIAL_CHARGES>
28
1 -0.18
10 0.11
11 -0.3
12 -0.15
13 0.41
14 -0.15
15 -0.15
16 0.37
17 0.28
18 0.49
19 -0.15
2 -0.56
20 0.16
21 0.28
22 0.15
23 0.27
24 0.15
25 0.15
26 0.15
29 0.4
3 0.03
32 0.15
33 0.15
4 -0.87
5 -0.57
6 -0.62
7 -0.05
9 0.05

> <PUBCHEM_EFFECTIVE_ROTOR_COUNT>
5

> <PUBCHEM_PHARMACOPHORE_FEATURES>
9
1 2 acceptor
1 3 cation
1 3 donor
1 4 donor
1 5 acceptor
3 4 6 13 cation
5 3 7 8 10 11 rings
6 5 8 10 14 19 20 rings
6 6 9 12 13 15 18 rings

> <PUBCHEM_HEAVY_ATOM_COUNT>
21

> <PUBCHEM_ATOM_DEF_STEREO_COUNT>
0

> <PUBCHEM_ATOM_UDEF_STEREO_COUNT>
0

> <PUBCHEM_BOND_DEF_STEREO_COUNT>
0

> <PUBCHEM_BOND_UDEF_STEREO_COUNT>
0

> <PUBCHEM_ISOTOPIC_ATOM_COUNT>
0

> <PUBCHEM_COMPONENT_COUNT>
1

> <PUBCHEM_CACTVS_TAUTO_COUNT>
13

> <PUBCHEM_CONFORMER_ID>
02F859BE00000001

> <PUBCHEM_MMFF94_ENERGY>
55.4874

> <PUBCHEM_FEATURE_SELFOVERLAP>
45.783

> <PUBCHEM_SHAPE_FINGERPRINT>
10447042 23 18335134319232625238
10622 236 17896584099231509067
11069576 57 18113897152429004542
11578080 2 18042384877883712428
12553582 1 18343017822120266599
12633257 1 16343405285152726986
12788726 201 18338531750154204217
12839892 36 18202283563591323503
13540713 5 18115887208588109372
13583140 156 17343761726460193138
13955234 65 17693941096266899897
14178342 30 18049722915053903962
14576447 43 18113623361464680274
15099037 8 18115312167932244192
15342816 4 18340778134035202389
15842332 3 17970935283388984596
17492 89 18338519612793345030
18222031 100 18201720699821545239
200 152 18113905939630599753
20028762 73 18272647982579184679
20626108 58 18129660923966604707
20645477 70 17168150052374539386
22950370 63 18411425033506813499
23557571 272 17772471192370275256
23622692 118 18334575698869774244
25147074 1 18043550342659546036
3004659 81 18040995141849938387
312423 11 18042988500849566628
314194 84 18335709398622258755
3411729 13 17630601447651582888
351380 3 18411423942627747007
46194498 28 15431464925569789447
463206 1 18335421326518116515
465052 167 18269563882928333855
56633871 153 17105364382449252218
6058803 2 18044106665773809124
7164475 11 18334578988646216876
7471813 234 18408041822889856700
76465 3 18411697716648552431
7970288 3 18341611538153917791
960060 61 17894909680808979615

> <PUBCHEM_SHAPE_MULTIPOLES>
408.25
11.53
3.76
1.24
8.83
2.74
0.12
-13.7
1.01
4.21
-0.79
-1.04
-0.25
-2.67

> <PUBCHEM_SHAPE_SELFOVERLAP>
878.039

> <PUBCHEM_SHAPE_VOLUME>
227.4

> <PUBCHEM_COORDINATE_TYPE>
2
5
10

$$$$
49830336
  -OEChem-05102415013D

 48 50  0     0  0  0  0  0  0999 V2000
   -2.0263   -5.0724    0.6985 Cl  0  0  0  0  0  0  0  0  0  0  0  0
    6.3418    0.6084   -2.0838 O   0  0  0  0  0  0  0  0  0  0  0  0
    1.5457   -1.6848    0.2405 N   0  0  0  0  0  0  0  0  0  0  0  0
   -0.2189   -3.2327    0.4367 N   0  0  0  0  0  0  0  0  0  0  0  0
   -4.5373    0.9269   -1.6582 N   0  0  0  0  0  0  0  0  0  0  0  0
   -4.7570    2.9262   -0.3322 N   0  0  0  0  0  0  0  0  0  0  0  0
    5.7640    1.1158    0.2366 C   0  0  0  0  0  0  0  0  0  0  0  0
    4.2336    1.0146   -0.0222 C   0  0  0  0  0  0  0  0  0  0  0  0
    3.6165   -0.3759    0.1916 C   0  0  0  0  0  0  0  0  0  0  0  0
    6.5802    0.2343   -0.7331 C   0  0  0  0  0  0  0  0  0  0  0  0
    6.1053    0.7087    1.6812 C   0  0  0  0  0  0  0  0  0  0  0  0
    6.1731    2.5922    0.0429 C   0  0  0  0  0  0  0  0  0  0  0  0
    2.1011   -0.3762   -0.0103 C   0  0  0  0  0  0  0  0  0  0  0  0
    0.1906   -1.9697    0.1820 C   0  0  0  0  0  0  0  0  0  0  0  0
   -2.0263   -1.1970   -0.1983 C   0  0  0  0  0  0  0  0  0  0  0  0
   -2.9547   -0.1519   -0.5257 C   0  0  0  0  0  0  0  0  0  0  0  0
   -0.6637   -0.9266   -0.1368 C   0  0  0  0  0  0  0  0  0  0  0  0
   -3.2135    1.0786    0.1340 C   0  0  0  0  0  0  0  0  0  0  0  0
   -4.2046    1.7271   -0.5968 C   0  0  0  0  0  0  0  0  0  0  0  0
   -3.7840   -0.2179   -1.6245 C   0  0  0  0  0  0  0  0  0  0  0  0
   -2.4862   -2.4841    0.0574 C   0  0  0  0  0  0  0  0  0  0  0  0
   -1.5502   -3.4575    0.3677 C   0  0  0  0  0  0  0  0  0  0  0  0
   -2.7224    1.7304    1.2770 C   0  0  0  0  0  0  0  0  0  0  0  0
   -3.2599    2.9757    1.5974 C   0  0  0  0  0  0  0  0  0  0  0  0
   -4.2467    3.5078    0.7784 C   0  0  0  0  0  0  0  0  0  0  0  0
    4.0112    1.3431   -1.0459 H   0  0  0  0  0  0  0  0  0  0  0  0
    3.7176    1.7228    0.6406 H   0  0  0  0  0  0  0  0  0  0  0  0
    3.8306   -0.7319    1.2055 H   0  0  0  0  0  0  0  0  0  0  0  0
    4.0677   -1.0973   -0.4993 H   0  0  0  0  0  0  0  0  0  0  0  0
    7.6537    0.3446   -0.5403 H   0  0  0  0  0  0  0  0  0  0  0  0
    6.3304   -0.8253   -0.6182 H   0  0  0  0  0  0  0  0  0  0  0  0
    7.1573    0.9158    1.9096 H   0  0  0  0  0  0  0  0  0  0  0  0
    5.4948    1.2619    2.4035 H   0  0  0  0  0  0  0  0  0  0  0  0
    5.9457   -0.3610    1.8513 H   0  0  0  0  0  0  0  0  0  0  0  0
    5.6632    3.2406    0.7646 H   0  0  0  0  0  0  0  0  0  0  0  0
    7.2518    2.7257    0.1830 H   0  0  0  0  0  0  0  0  0  0  0  0
    5.9201    2.9529   -0.9602 H   0  0  0  0  0  0  0  0  0  0  0  0
    1.6657    0.3579    0.6789 H   0  0  0  0  0  0  0  0  0  0  0  0
    1.8843   -0.0617   -1.0385 H   0  0  0  0  0  0  0  0  0  0  0  0
    2.1647   -2.4536    0.4714 H   0  0  0  0  0  0  0  0  0  0  0  0
    6.8835    0.0246   -2.6416 H   0  0  0  0  0  0  0  0  0  0  0  0
   -0.3208    0.0810   -0.3463 H   0  0  0  0  0  0  0  0  0  0  0  0
   -3.9093   -0.9714   -2.3906 H   0  0  0  0  0  0  0  0  0  0  0  0
   -3.5449   -2.7247    0.0213 H   0  0  0  0  0  0  0  0  0  0  0  0
   -5.2317    1.1479   -2.3582 H   0  0  0  0  0  0  0  0  0  0  0  0
   -1.9505    1.2874    1.8980 H   0  0  0  0  0  0  0  0  0  0  0  0
   -2.9131    3.5179    2.4705 H   0  0  0  0  0  0  0  0  0  0  0  0
   -4.6769    4.4778    1.0134 H   0  0  0  0  0  0  0  0  0  0  0  0
  1 22  1  0  0  0  0
  2 10  1  0  0  0  0
  2 41  1  0  0  0  0
  3 13  1  0  0  0  0
  3 14  1  0  0  0  0
  3 40  1  0  0  0  0
  4 14  2  0  0  0  0
  4 22  1  0  0  0  0
  5 19  1  0  0  0  0
  5 20  1  0  0  0  0
  5 45  1  0  0  0  0
  6 19  1  0  0  0  0
  6 25  2  0  0  0  0
  7  8  1  0  0  0  0
  7 10  1  0  0  0  0
  7 11  1  0  0  0  0
  7 12  1  0  0  0  0
  8  9  1  0  0  0  0
  8 26  1  0  0  0  0
  8 27  1  0  0  0  0
  9 13  1  0  0  0  0
  9 28  1  0  0  0  0
  9 29  1  0  0  0  0
 10 30  1  0  0  0  0
 10 31  1  0  0  0  0
 11 32  1  0  0  0  0
 11 33  1  0  0  0  0
 11 34  1  0  0  0  0
 12 35  1  0  0  0  0
 12 36  1  0  0  0  0
 12 37  1  0  0  0  0
 13 38  1  0  0  0  0
 13 39  1  0  0  0  0
 14 17  1  0  0  0  0
 15 16  1  0  0  0  0
 15 17  2  0  0  0  0
 15 21  1  0  0  0  0
 16 18  1  0  0  0  0
 16 20  2  0  0  0  0
 17 42  1  0  0  0  0
 18 19  2  0  0  0  0
 18 23  1  0  0  0  0
 20 43  1  0  0  0  0
 21 22  2  0  0  0  0
 21 44  1  0  0  0  0
 23 24  2  0  0  0  0
 23 46  1  0  0  0  0
 24 25  1  0  0  0  0
 24 47  1  0  0  0  0
 25 48  1  0  0  0  0
M  END
> <PUBCHEM_COMPOUND_CID>
49830336

> <PUBCHEM_CONFORMER_RMSD>
1

> <PUBCHEM_CONFORMER_DIVERSEORDER>
1
34
160
36
130
11
55
49
61
16
122
104
66
64
37
62
47
94
145
41
20
137
119
3
74
100
63
85
158
21
92
51
67
125
126
73
77
109
128
28
39
129
71
97
147
81
7
31
108
140
106
114
57
32
127
113
40
154
138
116
86
84
102
157
25
42
78
4
75
112
45
19
121
139
54
43
80
76
38
15
44
82
6
23
96
35
87
79
156
99
144
148
70
22
146
143
18
153
69
123
17
111
120
24
53
56
142
10
30
95
52
8
88
14
90
107
134
46
118
159
161
162
59
65
141
29
136
58
72
60
27
2
155
50
115
91
152
117
12
151
105
89
110
133
149
98
131
103
33
163
132
83
5
150
26
68
124
9
93
48
101
135
13

> <PUBCHEM_MMFF94_PARTIAL_CHARGES>
28
1 -0.18
10 0.28
13 0.37
14 0.41
15 0.05
16 -0.05
17 -0.15
19 0.11
2 -0.68
20 -0.3
21 -0.15
22 0.49
23 -0.15
24 -0.15
25 0.16
3 -0.87
4 -0.62
40 0.4
41 0.4
42 0.15
43 0.15
44 0.15
45 0.27
46 0.15
47 0.15
48 0.15
5 0.03
6 -0.57

> <PUBCHEM_EFFECTIVE_ROTOR_COUNT>
7

> <PUBCHEM_PHARMACOPHORE_FEATURES>
11
1 2 acceptor
1 2 donor
1 3 donor
1 5 cation
1 5 donor
1 6 acceptor
3 3 4 14 cation
3 7 11 12 hydrophobe
5 5 16 18 19 20 rings
6 4 14 15 17 21 22 rings
6 6 18 19 23 24 25 rings

> <PUBCHEM_HEAVY_ATOM_COUNT>
25

> <PUBCHEM_ATOM_DEF_STEREO_COUNT>
0

> <PUBCHEM_ATOM_UDEF_STEREO_COUNT>
0

> <PUBCHEM_BOND_DEF_STEREO_COUNT>
0

> <PUBCHEM_BOND_UDEF_STEREO_COUNT>
0

> <PUBCHEM_ISOTOPIC_ATOM_COUNT>
0

> <PUBCHEM_COMPONENT_COUNT>
1

> <PUBCHEM_CACTVS_TAUTO_COUNT>
13

> <PUBCHEM_CONFORMER_ID>
02F859C000000001

> <PUBCHEM_MMFF94_ENERGY>
65.5358

> <PUBCHEM_FEATURE_SELFOVERLAP>
55.933

> <PUBCHEM_SHAPE_FINGERPRINT>
10291535 26 18341893047209908411
10411042 1 17688309405735759395
10937287 8 18339080363601717483
11056379 131 18264776647866395470
11135609 187 18263912273298184789
11297750 10 17033869141702732107
12107183 9 18040707036282486666
12390115 104 18410019818459164055
12422481 6 17095801028063390252
12788726 201 18264754631901063763
14251764 75 17841722811634264785
14347329 18 18341608222765511608
14713325 29 18339651155891615011
14739800 52 18127666349770541114
14790565 3 18266178327343070400
14840074 17 17822017484362917996
14849402 71 17977667502559448899
14931854 50 18129931296353226285
15183329 4 18408884019644156270
15513586 35 17098359771725605892
17844677 252 18192717959059258058
20238998 120 17978512267578175435
21401589 2 18341058445207469395
22956985 138 16316965651078411603
283562 15 18336261328006590155
2838139 119 18271802402671062420
312425 54 12324238347987947764
38570 142 18127708031816354477
397830 11 11458425787082450030
4258327 124 17530972431273401463
474 4 18050000000922373227
508706 21 18272085037141620680
5104073 3 17967806163901857634
5283173 99 18343868835967904912
531348 171 17775286045517167622
57634706 229 18269294416104890776
5937810 71 18191887806575509724
6034566 193 18261963963835536005
6058803 2 17696172722798218703
6299153 45 18265041441579785258
633830 44 18126280844623549423
6673363 416 17471308713589741908
7288768 16 18187653457682196179
7808743 9 18410006641562569936
9981440 41 18336544932912001179

> <PUBCHEM_SHAPE_MULTIPOLES>
490.56
15.52
5.13
1.34
32.33
4.23
0.2
-14.25
2.66
-7.87
-2.13
0.12
-0.58
-0.33

> <PUBCHEM_SHAPE_SELFOVERLAP>
1039.917

> <PUBCHEM_SHAPE_VOLUME>
277.2

> <PUBCHEM_COORDINATE_TYPE>
2
5
10

$$$$
49830303
  -OEChem-05102415013D

 42 44  0     0  0  0  0  0  0999 V2000
    0.5673   -4.9858   -0.6419 Cl  0  0  0  0  0  0  0  0  0  0  0  0
    2.5251   -0.5609    0.1994 N   0  0  0  0  0  0  0  0  0  0  0  0
    4.1487    1.7291   -1.9824 N   0  0  0  0  0  0  0  0  0  0  0  0
    0.2029   -0.6387    0.2006 N   0  0  0  0  0  0  0  0  0  0  0  0
   -4.3030   -0.3937    0.6955 N   0  0  0  0  0  0  0  0  0  0  0  0
    1.5199   -2.6190   -0.1893 N   0  0  0  0  0  0  0  0  0  0  0  0
   -4.5720    1.9265    0.1060 N   0  0  0  0  0  0  0  0  0  0  0  0
    3.9790    1.4277    0.5222 C   0  0  0  0  0  0  0  0  0  0  0  0
    2.5391    0.8585    0.4706 C   0  0  0  0  0  0  0  0  0  0  0  0
    4.7692    1.1612   -0.7887 C   0  0  0  0  0  0  0  0  0  0  0  0
    4.7570    0.7886    1.6925 C   0  0  0  0  0  0  0  0  0  0  0  0
    3.8859    2.9446    0.7932 C   0  0  0  0  0  0  0  0  0  0  0  0
    1.3651   -1.3056    0.0651 C   0  0  0  0  0  0  0  0  0  0  0  0
   -2.1548   -0.7019    0.2043 C   0  0  0  0  0  0  0  0  0  0  0  0
   -0.9064   -1.3940    0.0616 C   0  0  0  0  0  0  0  0  0  0  0  0
   -2.4897    0.6464   -0.0903 C   0  0  0  0  0  0  0  0  0  0  0  0
   -3.8354    0.8059    0.2271 C   0  0  0  0  0  0  0  0  0  0  0  0
   -3.2899   -1.3172    0.6864 C   0  0  0  0  0  0  0  0  0  0  0  0
   -0.8836   -2.7488   -0.2000 C   0  0  0  0  0  0  0  0  0  0  0  0
   -1.8072    1.7659   -0.5934 C   0  0  0  0  0  0  0  0  0  0  0  0
    0.3701   -3.3135   -0.3166 C   0  0  0  0  0  0  0  0  0  0  0  0
   -2.5227    2.9530   -0.7390 C   0  0  0  0  0  0  0  0  0  0  0  0
   -3.8646    2.9718   -0.3829 C   0  0  0  0  0  0  0  0  0  0  0  0
    2.0372    1.0500    1.4281 H   0  0  0  0  0  0  0  0  0  0  0  0
    1.9633    1.3837   -0.3021 H   0  0  0  0  0  0  0  0  0  0  0  0
    5.7795    1.5798   -0.6980 H   0  0  0  0  0  0  0  0  0  0  0  0
    4.8998    0.0852   -0.9482 H   0  0  0  0  0  0  0  0  0  0  0  0
    4.2239    0.9208    2.6409 H   0  0  0  0  0  0  0  0  0  0  0  0
    5.7464    1.2475    1.8029 H   0  0  0  0  0  0  0  0  0  0  0  0
    4.9119   -0.2851    1.5439 H   0  0  0  0  0  0  0  0  0  0  0  0
    3.4273    3.1417    1.7692 H   0  0  0  0  0  0  0  0  0  0  0  0
    4.8789    3.4079    0.7947 H   0  0  0  0  0  0  0  0  0  0  0  0
    3.2769    3.4571    0.0409 H   0  0  0  0  0  0  0  0  0  0  0  0
    3.3955   -1.0714    0.1129 H   0  0  0  0  0  0  0  0  0  0  0  0
    4.1281    2.7451   -1.9123 H   0  0  0  0  0  0  0  0  0  0  0  0
    4.7259    1.5156   -2.7950 H   0  0  0  0  0  0  0  0  0  0  0  0
   -3.4833   -2.3228    1.0351 H   0  0  0  0  0  0  0  0  0  0  0  0
   -5.2495   -0.5692    1.0029 H   0  0  0  0  0  0  0  0  0  0  0  0
   -1.7777   -3.3482   -0.3244 H   0  0  0  0  0  0  0  0  0  0  0  0
   -0.7584    1.7241   -0.8681 H   0  0  0  0  0  0  0  0  0  0  0  0
   -2.0395    3.8444   -1.1243 H   0  0  0  0  0  0  0  0  0  0  0  0
   -4.4378    3.8890   -0.4903 H   0  0  0  0  0  0  0  0  0  0  0  0
  1 21  1  0  0  0  0
  2  9  1  0  0  0  0
  2 13  1  0  0  0  0
  2 34  1  0  0  0  0
  3 10  1  0  0  0  0
  3 35  1  0  0  0  0
  3 36  1  0  0  0  0
  4 13  2  0  0  0  0
  4 15  1  0  0  0  0
  5 17  1  0  0  0  0
  5 18  1  0  0  0  0
  5 38  1  0  0  0  0
  6 13  1  0  0  0  0
  6 21  2  0  0  0  0
  7 17  1  0  0  0  0
  7 23  2  0  0  0  0
  8  9  1  0  0  0  0
  8 10  1  0  0  0  0
  8 11  1  0  0  0  0
  8 12  1  0  0  0  0
  9 24  1  0  0  0  0
  9 25  1  0  0  0  0
 10 26  1  0  0  0  0
 10 27  1  0  0  0  0
 11 28  1  0  0  0  0
 11 29  1  0  0  0  0
 11 30  1  0  0  0  0
 12 31  1  0  0  0  0
 12 32  1  0  0  0  0
 12 33  1  0  0  0  0
 14 15  1  0  0  0  0
 14 16  1  0  0  0  0
 14 18  2  0  0  0  0
 15 19  2  0  0  0  0
 16 17  2  0  0  0  0
 16 20  1  0  0  0  0
 18 37  1  0  0  0  0
 19 21  1  0  0  0  0
 19 39  1  0  0  0  0
 20 22  2  0  0  0  0
 20 40  1  0  0  0  0
 22 23  1  0  0  0  0
 22 41  1  0  0  0  0
 23 42  1  0  0  0  0
M  END
> <PUBCHEM_COMPOUND_CID>
49830303

> <PUBCHEM_CONFORMER_RMSD>
0.8

> <PUBCHEM_CONFORMER_DIVERSEORDER>
1
28
130
137
46
37
45
98
128
104
108
118
112
82
22
24
42
117
48
116
53
66
77
90
27
136
35
76
69
120
109
111
135
94
19
55
127
47
67
105
89
58
107
134
84
12
95
32
20
60
59
78
131
103
74
113
85
23
119
68
92
65
17
72
115
83
49
124
126
125
102
79
138
6
132
39
100
73
70
114
121
40
10
62
36
97
7
110
99
8
29
34
123
26
80
13
30
57
5
25
81
9
86
106
33
64
88
3
44
38
52
11
133
56
96
54
51
4
63
50
129
43
75
31
61
14
18
2
15
91
87
21
16
41
101
122
93
71

> <PUBCHEM_MMFF94_PARTIAL_CHARGES>
28
1 -0.18
10 0.27
13 0.72
14 -0.05
15 0.36
17 0.11
18 -0.3
19 -0.15
2 -0.87
20 -0.15
21 0.49
22 -0.15
23 0.16
3 -0.99
34 0.4
35 0.36
36 0.36
37 0.15
38 0.27
39 0.15
4 -0.62
40 0.15
41 0.15
42 0.15
5 0.03
6 -0.62
7 -0.57
9 0.37

> <PUBCHEM_EFFECTIVE_ROTOR_COUNT>
5

> <PUBCHEM_PHARMACOPHORE_FEATURES>
12
1 2 donor
1 3 cation
1 3 donor
1 5 cation
1 5 donor
1 6 acceptor
1 7 acceptor
3 8 11 12 hydrophobe
4 2 4 6 13 cation
5 5 14 16 17 18 rings
6 4 6 13 15 19 21 rings
6 7 16 17 20 22 23 rings

> <PUBCHEM_HEAVY_ATOM_COUNT>
23

> <PUBCHEM_ATOM_DEF_STEREO_COUNT>
0

> <PUBCHEM_ATOM_UDEF_STEREO_COUNT>
0

> <PUBCHEM_BOND_DEF_STEREO_COUNT>
0

> <PUBCHEM_BOND_UDEF_STEREO_COUNT>
0

> <PUBCHEM_ISOTOPIC_ATOM_COUNT>
0

> <PUBCHEM_COMPONENT_COUNT>
1

> <PUBCHEM_CACTVS_TAUTO_COUNT>
16

> <PUBCHEM_CONFORMER_ID>
02F8599F00000001

> <PUBCHEM_MMFF94_ENERGY>
54.9825

> <PUBCHEM_FEATURE_SELFOVERLAP>
61.008

> <PUBCHEM_SHAPE_FINGERPRINT>
10165383 225 18200883962650674145
10411042 1 17186436288292470178
10608611 8 18120655730451106251
10670039 82 18261684752554549748
10871710 139 18268985569829188239
10906281 52 18187942694181554131
1100329 8 16828405035295152960
11552529 35 16735243857855647306
11833330 49 17619620719403604338
12107183 9 18337652171781671570
12173636 292 18339356482654171766
12363563 72 8574433157544270608
12403259 226 17469605110036131183
12596602 18 16515686701109679904
12788726 201 17755866673069177986
12925494 130 18123748660919033073
12978246 48 18334576892702630964
13140716 1 18191579757543238107
13590594 115 17044306263774291161
138480 1 17764023562876634282
14251757 5 18194981848874124620
14466204 15 18121772829964990426
14468879 13 18260836968775200521
14508225 48 17334763670558576494
14950920 106 17168412865955713528
15403338 16 16806144619257901857
18785283 64 18192150386866938698
20101258 96 17399241240414584130
21033648 29 18271516585424874496
21860390 5 17695056704540356646
23227448 37 18126283288222407620
23366157 5 18043814177936657011
23559900 14 18052249601290933203
3298306 158 18342738490237173996
350125 39 18337114462712900342
5104073 3 18190748540296808073
621550 34 18338811039493981003
6287921 2 18191034408460871541
7064713 232 18334293162846939244
7399639 24 18410581682440338291
7808743 9 18122343742893403136
9709674 26 18050005498586234327
9862522 239 18337092536598743208
9925002 15 17689721187180983167
9981440 41 18410284809610005659

> <PUBCHEM_SHAPE_MULTIPOLES>
445.31
9.71
5.11
1.07
4.55
5.19
0.13
-10.12
-1.11
-0.36
1.32
1.21
-0.44
0.83

> <PUBCHEM_SHAPE_SELFOVERLAP>
953.144

> <PUBCHEM_SHAPE_VOLUME>
249

> <PUBCHEM_COORDINATE_TYPE>
2
5
10

$$$$
49830275
  -OEChem-05102415013D

 39 42  0     0  0  0  0  0  0999 V2000
    0.0836   -4.5984   -1.0473 Cl  0  0  0  0  0  0  0  0  0  0  0  0
    4.6746   -0.1005    1.5080 N   0  0  0  0  0  0  0  0  0  0  0  0
   -2.0868   -0.2736    0.0894 N   0  0  0  0  0  0  0  0  0  0  0  0
    5.4666    1.8505    0.3375 N   0  0  0  0  0  0  0  0  0  0  0  0
   -0.9556   -2.3043   -0.4332 N   0  0  0  0  0  0  0  0  0  0  0  0
    2.7363   -0.4492    0.4726 C   0  0  0  0  0  0  0  0  0  0  0  0
    3.3512    0.6921   -0.1068 C   0  0  0  0  0  0  0  0  0  0  0  0
    1.4841   -1.0780    0.1646 C   0  0  0  0  0  0  0  0  0  0  0  0
    4.5576    0.8824    0.5608 C   0  0  0  0  0  0  0  0  0  0  0  0
    3.5736   -0.9159    1.4628 C   0  0  0  0  0  0  0  0  0  0  0  0
    0.2970   -0.3627    0.2779 C   0  0  0  0  0  0  0  0  0  0  0  0
   -0.8855   -1.0159   -0.0299 C   0  0  0  0  0  0  0  0  0  0  0  0
    3.0287    1.5989   -1.1296 C   0  0  0  0  0  0  0  0  0  0  0  0
   -3.3681   -0.8311   -0.1979 C   0  0  0  0  0  0  0  0  0  0  0  0
    1.4527   -2.4057   -0.2474 C   0  0  0  0  0  0  0  0  0  0  0  0
   -4.4453    0.2022   -0.0165 C   0  0  0  0  0  0  0  0  0  0  0  0
    3.9354    2.6214   -1.4026 C   0  0  0  0  0  0  0  0  0  0  0  0
    0.2184   -2.9674   -0.5318 C   0  0  0  0  0  0  0  0  0  0  0  0
    5.1042    2.6941   -0.6569 C   0  0  0  0  0  0  0  0  0  0  0  0
   -5.0628    0.3555    1.2248 C   0  0  0  0  0  0  0  0  0  0  0  0
   -4.8270    1.0071   -1.0896 C   0  0  0  0  0  0  0  0  0  0  0  0
   -6.0624    1.3139    1.3930 C   0  0  0  0  0  0  0  0  0  0  0  0
   -5.8264    1.9656   -0.9216 C   0  0  0  0  0  0  0  0  0  0  0  0
   -6.4441    2.1189    0.3197 C   0  0  0  0  0  0  0  0  0  0  0  0
    3.4903   -1.7517    2.1446 H   0  0  0  0  0  0  0  0  0  0  0  0
    5.4539   -0.2073    2.1425 H   0  0  0  0  0  0  0  0  0  0  0  0
    0.2951    0.6749    0.6002 H   0  0  0  0  0  0  0  0  0  0  0  0
    2.1068    1.5146   -1.6959 H   0  0  0  0  0  0  0  0  0  0  0  0
   -3.4035   -1.2121   -1.2267 H   0  0  0  0  0  0  0  0  0  0  0  0
   -3.5724   -1.6888    0.4557 H   0  0  0  0  0  0  0  0  0  0  0  0
    2.3636   -2.9886   -0.3496 H   0  0  0  0  0  0  0  0  0  0  0  0
   -2.0355    0.5620    0.6642 H   0  0  0  0  0  0  0  0  0  0  0  0
    3.7307    3.3460   -2.1835 H   0  0  0  0  0  0  0  0  0  0  0  0
    5.8224    3.4851   -0.8565 H   0  0  0  0  0  0  0  0  0  0  0  0
   -4.7729   -0.2644    2.0690 H   0  0  0  0  0  0  0  0  0  0  0  0
   -4.3522    0.8986   -2.0611 H   0  0  0  0  0  0  0  0  0  0  0  0
   -6.5430    1.4337    2.3595 H   0  0  0  0  0  0  0  0  0  0  0  0
   -6.1234    2.5928   -1.7570 H   0  0  0  0  0  0  0  0  0  0  0  0
   -7.2221    2.8654    0.4506 H   0  0  0  0  0  0  0  0  0  0  0  0
  1 18  1  0  0  0  0
  2  9  1  0  0  0  0
  2 10  1  0  0  0  0
  2 26  1  0  0  0  0
  3 12  1  0  0  0  0
  3 14  1  0  0  0  0
  3 32  1  0  0  0  0
  4  9  1  0  0  0  0
  4 19  2  0  0  0  0
  5 12  2  0  0  0  0
  5 18  1  0  0  0  0
  6  7  1  0  0  0  0
  6  8  1  0  0  0  0
  6 10  2  0  0  0  0
  7  9  2  0  0  0  0
  7 13  1  0  0  0  0
  8 11  2  0  0  0  0
  8 15  1  0  0  0  0
 10 25  1  0  0  0  0
 11 12  1  0  0  0  0
 11 27  1  0  0  0  0
 13 17  2  0  0  0  0
 13 28  1  0  0  0  0
 14 16  1  0  0  0  0
 14 29  1  0  0  0  0
 14 30  1  0  0  0  0
 15 18  2  0  0  0  0
 15 31  1  0  0  0  0
 16 20  2  0  0  0  0
 16 21  1  0  0  0  0
 17 19  1  0  0  0  0
 17 33  1  0  0  0  0
 19 34  1  0  0  0  0
 20 22  1  0  0  0  0
 20 35  1  0  0  0  0
 21 23  2  0  0  0  0
 21 36  1  0  0  0  0
 22 24  2  0  0  0  0
 22 37  1  0  0  0  0
 23 24  1  0  0  0  0
 23 38  1  0  0  0  0
 24 39  1  0  0  0  0
M  END
> <PUBCHEM_COMPOUND_CID>
49830275

> <PUBCHEM_CONFORMER_RMSD>
0.8

> <PUBCHEM_CONFORMER_DIVERSEORDER>
1
54
64
34
24
11
59
38
48
13
9
60
3
20
40
44
57
32
49
18
39
50
21
62
7
31
4
45
41
14
33
61
36
37
42
53
2
22
63
43
56
6
51
15
52
29
17
55
23
27
46
8
35
30
58
10
16
19
26
25
5
12
47
28

> <PUBCHEM_MMFF94_PARTIAL_CHARGES>
36
1 -0.18
10 -0.3
11 -0.15
12 0.41
13 -0.15
14 0.51
15 -0.15
16 -0.14
17 -0.15
18 0.49
19 0.16
2 0.03
20 -0.15
21 -0.15
22 -0.15
23 -0.15
24 -0.15
25 0.15
26 0.27
27 0.15
28 0.15
3 -0.87
31 0.15
32 0.4
33 0.15
34 0.15
35 0.15
36 0.15
37 0.15
38 0.15
39 0.15
4 -0.57
5 -0.62
6 -0.05
8 0.05
9 0.11

> <PUBCHEM_EFFECTIVE_ROTOR_COUNT>
4

> <PUBCHEM_PHARMACOPHORE_FEATURES>
9
1 2 cation
1 2 donor
1 3 donor
1 4 acceptor
3 3 5 12 cation
5 2 6 7 9 10 rings
6 16 20 21 22 23 24 rings
6 4 7 9 13 17 19 rings
6 5 8 11 12 15 18 rings

> <PUBCHEM_HEAVY_ATOM_COUNT>
24

> <PUBCHEM_ATOM_DEF_STEREO_COUNT>
0

> <PUBCHEM_ATOM_UDEF_STEREO_COUNT>
0

> <PUBCHEM_BOND_DEF_STEREO_COUNT>
0

> <PUBCHEM_BOND_UDEF_STEREO_COUNT>
0

> <PUBCHEM_ISOTOPIC_ATOM_COUNT>
0

> <PUBCHEM_COMPONENT_COUNT>
1

> <PUBCHEM_CACTVS_TAUTO_COUNT>
13

> <PUBCHEM_CONFORMER_ID>
02F8598300000001

> <PUBCHEM_MMFF94_ENERGY>
66.658

> <PUBCHEM_FEATURE_SELFOVERLAP>
45.784

> <PUBCHEM_SHAPE_FINGERPRINT>
10 15 18113625586479214689
10411042 1 17548136623738197462
10763959 59 18262237712186978942
12107183 9 18335405864936336498
12293681 160 17703796928591055067
12390115 104 18200324328354417675
12403259 118 18261104235583377258
12422481 6 17749102275449818597
12633257 1 15069183527713584444
12788726 201 17907289206448644110
13583140 156 16879045508581139983
13631057 29 18058714932449125823
13782708 43 13046759341991386448
13785724 45 17974841771172980922
13911852 28 8790893973171314041
14251764 75 18189908693248867100
14294032 229 18128544949824804271
14790565 3 18339644541762966829
15183329 4 13542471934390809729
15188451 53 14345801586932571545
15238133 3 18271518793317256064
15342168 16 18411136935474332807
15348495 7 17458349636982998009
17810953 82 18407760326622925868
17980427 23 17967817201762092839
1813 80 11674881061126054331
18222031 100 11314029080215345627
19246450 95 17463654681702425888
19427546 62 18410857616888248231
1979834 28 18261403200173365109
20369508 70 8934706791096302155
20715895 44 18336821996656598245
22061861 79 12247677158760041097
22149856 69 18270700679810226539
22950370 63 9151179774349591935
23559900 14 18266466403758965671
245318 6 17823717427939182509
2748736 6 18341323448906088849
312425 54 15936408918986613289
34797466 226 15051437345933171281
351380 3 8070025579989672497
397830 11 17749121002013260993
474 4 18411983529421133731
5104073 3 17822007652797038673
57724786 102 18334010592858659550
59682541 52 16343432708682273988
6034566 193 18339088193527304671
6058803 2 17973991041531135394
636775 72 17689436414382688724
7808743 9 18339079418413344090
7970288 3 8646497305597492265
960060 61 12391510888563892473

> <PUBCHEM_SHAPE_MULTIPOLES>
475.85
15.46
3.96
1.28
16.32
3.81
0.13
-17.03
2.45
-2.14
-2
-0.11
-0.24
-1.22

> <PUBCHEM_SHAPE_SELFOVERLAP>
1050.257

> <PUBCHEM_SHAPE_VOLUME>
256.1

> <PUBCHEM_COORDINATE_TYPE>
2
5
10

$$$$
49830313
  -OEChem-05102415013D

 42 45  0     0  0  0  0  0  0999 V2000
   -1.1359   -3.7626   -1.5861 Cl  0  0  0  0  0  0  0  0  0  0  0  0
   -1.9163   -0.0378    1.6113 N   0  0  0  0  0  0  0  0  0  0  0  0
    4.8386   -0.9515    0.4734 N   0  0  0  0  0  0  0  0  0  0  0  0
   -1.4423   -1.7998    0.0793 N   0  0  0  0  0  0  0  0  0  0  0  0
    5.6186    1.2288   -0.1910 N   0  0  0  0  0  0  0  0  0  0  0  0
    2.6485   -0.7261    0.1523 C   0  0  0  0  0  0  0  0  0  0  0  0
    1.2609   -1.0896    0.1269 C   0  0  0  0  0  0  0  0  0  0  0  0
    3.2779    0.4973   -0.1991 C   0  0  0  0  0  0  0  0  0  0  0  0
   -3.3194   -0.3869    1.5923 C   0  0  0  0  0  0  0  0  0  0  0  0
   -0.9888   -0.7713    0.8304 C   0  0  0  0  0  0  0  0  0  0  0  0
    0.3391   -0.3798    0.8886 C   0  0  0  0  0  0  0  0  0  0  0  0
    4.6425    0.3236    0.0123 C   0  0  0  0  0  0  0  0  0  0  0  0
    3.6335   -1.5988    0.5617 C   0  0  0  0  0  0  0  0  0  0  0  0
   -4.0295    0.3434    0.4863 C   0  0  0  0  0  0  0  0  0  0  0  0
    0.8325   -2.1541   -0.6586 C   0  0  0  0  0  0  0  0  0  0  0  0
    2.8520    1.7472   -0.6772 C   0  0  0  0  0  0  0  0  0  0  0  0
   -1.4664    1.0691    2.4256 C   0  0  0  0  0  0  0  0  0  0  0  0
   -0.5174   -2.4662   -0.6476 C   0  0  0  0  0  0  0  0  0  0  0  0
   -4.5965    1.5947    0.7282 C   0  0  0  0  0  0  0  0  0  0  0  0
   -4.1215   -0.2307   -0.7815 C   0  0  0  0  0  0  0  0  0  0  0  0
    3.8218    2.7217   -0.9053 C   0  0  0  0  0  0  0  0  0  0  0  0
    5.1513    2.4129   -0.6509 C   0  0  0  0  0  0  0  0  0  0  0  0
   -5.2555    2.2719   -0.2979 C   0  0  0  0  0  0  0  0  0  0  0  0
   -4.7803    0.4466   -1.8076 C   0  0  0  0  0  0  0  0  0  0  0  0
   -5.3473    1.6979   -1.5658 C   0  0  0  0  0  0  0  0  0  0  0  0
   -3.4764   -1.4698    1.4994 H   0  0  0  0  0  0  0  0  0  0  0  0
   -3.7888   -0.1341    2.5527 H   0  0  0  0  0  0  0  0  0  0  0  0
    0.6971    0.4436    1.4963 H   0  0  0  0  0  0  0  0  0  0  0  0
    3.5925   -2.6216    0.9117 H   0  0  0  0  0  0  0  0  0  0  0  0
    5.7350   -1.3527    0.7117 H   0  0  0  0  0  0  0  0  0  0  0  0
    1.5282   -2.7244   -1.2675 H   0  0  0  0  0  0  0  0  0  0  0  0
    1.8044    1.9576   -0.8674 H   0  0  0  0  0  0  0  0  0  0  0  0
   -2.3000    1.5258    2.9719 H   0  0  0  0  0  0  0  0  0  0  0  0
   -1.0286    1.8663    1.8141 H   0  0  0  0  0  0  0  0  0  0  0  0
   -0.7486    0.7429    3.1867 H   0  0  0  0  0  0  0  0  0  0  0  0
   -4.5333    2.0534    1.7112 H   0  0  0  0  0  0  0  0  0  0  0  0
   -3.7099   -1.2132   -0.9880 H   0  0  0  0  0  0  0  0  0  0  0  0
    3.5420    3.7025   -1.2746 H   0  0  0  0  0  0  0  0  0  0  0  0
    5.9207    3.1610   -0.8232 H   0  0  0  0  0  0  0  0  0  0  0  0
   -5.6974    3.2460   -0.1096 H   0  0  0  0  0  0  0  0  0  0  0  0
   -4.8567   -0.0027   -2.7934 H   0  0  0  0  0  0  0  0  0  0  0  0
   -5.8614    2.2245   -2.3645 H   0  0  0  0  0  0  0  0  0  0  0  0
  1 18  1  0  0  0  0
  2  9  1  0  0  0  0
  2 10  1  0  0  0  0
  2 17  1  0  0  0  0
  3 12  1  0  0  0  0
  3 13  1  0  0  0  0
  3 30  1  0  0  0  0
  4 10  2  0  0  0  0
  4 18  1  0  0  0  0
  5 12  1  0  0  0  0
  5 22  2  0  0  0  0
  6  7  1  0  0  0  0
  6  8  1  0  0  0  0
  6 13  2  0  0  0  0
  7 11  2  0  0  0  0
  7 15  1  0  0  0  0
  8 12  2  0  0  0  0
  8 16  1  0  0  0  0
  9 14  1  0  0  0  0
  9 26  1  0  0  0  0
  9 27  1  0  0  0  0
 10 11  1  0  0  0  0
 11 28  1  0  0  0  0
 13 29  1  0  0  0  0
 14 19  2  0  0  0  0
 14 20  1  0  0  0  0
 15 18  2  0  0  0  0
 15 31  1  0  0  0  0
 16 21  2  0  0  0  0
 16 32  1  0  0  0  0
 17 33  1  0  0  0  0
 17 34  1  0  0  0  0
 17 35  1  0  0  0  0
 19 23  1  0  0  0  0
 19 36  1  0  0  0  0
 20 24  2  0  0  0  0
 20 37  1  0  0  0  0
 21 22  1  0  0  0  0
 21 38  1  0  0  0  0
 22 39  1  0  0  0  0
 23 25  2  0  0  0  0
 23 40  1  0  0  0  0
 24 25  1  0  0  0  0
 24 41  1  0  0  0  0
 25 42  1  0  0  0  0
M  END
> <PUBCHEM_COMPOUND_CID>
49830313

> <PUBCHEM_CONFORMER_RMSD>
0.8

> <PUBCHEM_CONFORMER_DIVERSEORDER>
1
45
75
60
43
103
109
3
116
56
54
88
25
53
74
90
20
35
9
18
61
114
97
16
17
70
4
34
10
115
50
41
85
84
117
105
72
42
113
91
66
15
49
71
67
47
26
46
29
111
95
108
40
82
86
51
92
21
36
24
93
112
100
76
59
65
96
64
8
69
31
106
89
14
57
101
58
33
52
110
32
13
107
55
6
79
44
87
98
11
19
94
37
5
27
73
78
62
23
99
80
28
63
39
104
30
2
102
68
22
48
81
7
12
83
38
77

> <PUBCHEM_MMFF94_PARTIAL_CHARGES>
36
1 -0.18
10 0.41
11 -0.15
12 0.11
13 -0.3
14 -0.14
15 -0.15
16 -0.15
17 0.37
18 0.49
19 -0.15
2 -0.84
20 -0.15
21 -0.15
22 0.16
23 -0.15
24 -0.15
25 -0.15
28 0.15
29 0.15
3 0.03
30 0.27
31 0.15
32 0.15
36 0.15
37 0.15
38 0.15
39 0.15
4 -0.62
40 0.15
41 0.15
42 0.15
5 -0.57
6 -0.05
7 0.05
9 0.51

> <PUBCHEM_EFFECTIVE_ROTOR_COUNT>
4

> <PUBCHEM_PHARMACOPHORE_FEATURES>
8
1 3 cation
1 3 donor
1 5 acceptor
3 2 4 10 cation
5 3 6 8 12 13 rings
6 14 19 20 23 24 25 rings
6 4 7 10 11 15 18 rings
6 5 8 12 16 21 22 rings

> <PUBCHEM_HEAVY_ATOM_COUNT>
25

> <PUBCHEM_ATOM_DEF_STEREO_COUNT>
0

> <PUBCHEM_ATOM_UDEF_STEREO_COUNT>
0

> <PUBCHEM_BOND_DEF_STEREO_COUNT>
0

> <PUBCHEM_BOND_UDEF_STEREO_COUNT>
0

> <PUBCHEM_ISOTOPIC_ATOM_COUNT>
0

> <PUBCHEM_COMPONENT_COUNT>
1

> <PUBCHEM_CACTVS_TAUTO_COUNT>
3

> <PUBCHEM_CONFORMER_ID>
02F859A900000001

> <PUBCHEM_MMFF94_ENERGY>
75.7784

> <PUBCHEM_FEATURE_SELFOVERLAP>
40.71

> <PUBCHEM_SHAPE_FINGERPRINT>
105312 117 18412550933049776607
10763959 59 18260555472497479574
10928967 22 7925627769870011104
11089746 13 18040428871981587074
11796584 16 12463294648588187645
12128747 34 16589423073520357834
12596602 18 12468653706848355533
12633257 1 14851888100935121220
13103583 49 11097858441680561437
13402501 40 17967530147401662797
13544653 18 11095881579591982835
13583140 156 17968104147999682891
13911987 19 18202007642265146057
14251757 5 17914607504593365839
14251764 30 11167932576618478189
14251764 38 18262520273516751877
14767858 380 17988635307814464765
14950920 106 11026668349727875133
14951699 99 16660942061796133164
15475509 35 9726760917725419253
17349148 13 17846502508669511794
17980427 26 17531793719310070986
20511986 3 18339913918465404720
20715895 44 18265895765829473601
21033648 144 18187366515101445021
21033648 29 15719668763150137037
21033650 10 16271109054463340978
21049683 271 17189535802891533207
21475661 188 17531247274757504284
22950370 63 8862936191136430639
235170 7 14333131827760528560
23559900 14 18189337875010090962
2838139 119 18114736045498749077
314194 84 9294991467204222977
328310 1195 18261665970214268557
394222 165 18264198137156712635
474 4 18340492162175089003
633830 44 17701284467555261107
7237137 82 18057602273103432831

> <PUBCHEM_SHAPE_MULTIPOLES>
496.43
13.01
3.27
1.64
0.55
1.41
-0.35
-10.63
3.39
0.68
1.7
-1.98
-0.16
-0.94

> <PUBCHEM_SHAPE_SELFOVERLAP>
1093.229

> <PUBCHEM_SHAPE_VOLUME>
268.3

> <PUBCHEM_COORDINATE_TYPE>
2
5
10

$$$$
49830332
  -OEChem-05102415013D

 39 41  0     0  0  0  0  0  0999 V2000
   -0.6073    5.0750   -0.6677 Cl  0  0  0  0  0  0  0  0  0  0  0  0
    6.8475   -3.0872    0.4065 O   0  0  0  0  0  0  0  0  0  0  0  0
    2.5661    1.3155   -0.1772 N   0  0  0  0  0  0  0  0  0  0  0  0
   -3.7952   -0.6259    1.6100 N   0  0  0  0  0  0  0  0  0  0  0  0
    0.9842    3.0476   -0.3904 N   0  0  0  0  0  0  0  0  0  0  0  0
   -4.2103   -2.5827    0.2675 N   0  0  0  0  0  0  0  0  0  0  0  0
    4.4867   -0.1958   -0.0352 C   0  0  0  0  0  0  0  0  0  0  0  0
    2.9713   -0.0472    0.0735 C   0  0  0  0  0  0  0  0  0  0  0  0
   -2.0864    0.2793    0.5094 C   0  0  0  0  0  0  0  0  0  0  0  0
    4.9571   -1.6282    0.2214 C   0  0  0  0  0  0  0  0  0  0  0  0
   -2.4672   -0.9124   -0.1625 C   0  0  0  0  0  0  0  0  0  0  0  0
   -1.0445    1.2183    0.2031 C   0  0  0  0  0  0  0  0  0  0  0  0
    1.2494    1.7462   -0.1378 C   0  0  0  0  0  0  0  0  0  0  0  0
   -3.5349   -1.4523    0.5487 C   0  0  0  0  0  0  0  0  0  0  0  0
    0.2813    0.8011    0.1610 C   0  0  0  0  0  0  0  0  0  0  0  0
   -2.9212    0.4299    1.5956 C   0  0  0  0  0  0  0  0  0  0  0  0
    6.4736   -1.7415    0.1456 C   0  0  0  0  0  0  0  0  0  0  0  0
   -1.3571    2.5491   -0.0512 C   0  0  0  0  0  0  0  0  0  0  0  0
   -2.0319   -1.6083   -1.3020 C   0  0  0  0  0  0  0  0  0  0  0  0
   -0.3157    3.4162   -0.3404 C   0  0  0  0  0  0  0  0  0  0  0  0
   -2.6968   -2.7858   -1.6390 C   0  0  0  0  0  0  0  0  0  0  0  0
   -3.7488   -3.2110   -0.8388 C   0  0  0  0  0  0  0  0  0  0  0  0
    4.8146    0.1228   -1.0330 H   0  0  0  0  0  0  0  0  0  0  0  0
    4.9694    0.4814    0.6812 H   0  0  0  0  0  0  0  0  0  0  0  0
    2.5036   -0.7220   -0.6540 H   0  0  0  0  0  0  0  0  0  0  0  0
    2.6663   -0.3547    1.0813 H   0  0  0  0  0  0  0  0  0  0  0  0
    4.5021   -2.3128   -0.5051 H   0  0  0  0  0  0  0  0  0  0  0  0
    4.6167   -1.9673    1.2077 H   0  0  0  0  0  0  0  0  0  0  0  0
    3.2685    2.0125   -0.3970 H   0  0  0  0  0  0  0  0  0  0  0  0
    0.5087   -0.2396    0.3658 H   0  0  0  0  0  0  0  0  0  0  0  0
   -2.9758    1.1889    2.3646 H   0  0  0  0  0  0  0  0  0  0  0  0
   -4.5207   -0.7732    2.2978 H   0  0  0  0  0  0  0  0  0  0  0  0
    6.9513   -1.0974    0.8907 H   0  0  0  0  0  0  0  0  0  0  0  0
    6.8364   -1.4653   -0.8496 H   0  0  0  0  0  0  0  0  0  0  0  0
   -2.3837    2.9037   -0.0298 H   0  0  0  0  0  0  0  0  0  0  0  0
   -1.2065   -1.2491   -1.9081 H   0  0  0  0  0  0  0  0  0  0  0  0
   -2.3973   -3.3583   -2.5103 H   0  0  0  0  0  0  0  0  0  0  0  0
   -4.2784   -4.1271   -1.0869 H   0  0  0  0  0  0  0  0  0  0  0  0
    7.8174   -3.1295    0.3514 H   0  0  0  0  0  0  0  0  0  0  0  0
  1 20  1  0  0  0  0
  2 17  1  0  0  0  0
  2 39  1  0  0  0  0
  3  8  1  0  0  0  0
  3 13  1  0  0  0  0
  3 29  1  0  0  0  0
  4 14  1  0  0  0  0
  4 16  1  0  0  0  0
  4 32  1  0  0  0  0
  5 13  2  0  0  0  0
  5 20  1  0  0  0  0
  6 14  1  0  0  0  0
  6 22  2  0  0  0  0
  7  8  1  0  0  0  0
  7 10  1  0  0  0  0
  7 23  1  0  0  0  0
  7 24  1  0  0  0  0
  8 25  1  0  0  0  0
  8 26  1  0  0  0  0
  9 11  1  0  0  0  0
  9 12  1  0  0  0  0
  9 16  2  0  0  0  0
 10 17  1  0  0  0  0
 10 27  1  0  0  0  0
 10 28  1  0  0  0  0
 11 14  2  0  0  0  0
 11 19  1  0  0  0  0
 12 15  2  0  0  0  0
 12 18  1  0  0  0  0
 13 15  1  0  0  0  0
 15 30  1  0  0  0  0
 16 31  1  0  0  0  0
 17 33  1  0  0  0  0
 17 34  1  0  0  0  0
 18 20  2  0  0  0  0
 18 35  1  0  0  0  0
 19 21  2  0  0  0  0
 19 36  1  0  0  0  0
 21 22  1  0  0  0  0
 21 37  1  0  0  0  0
 22 38  1  0  0  0  0
M  END
> <PUBCHEM_COMPOUND_CID>
49830332

> <PUBCHEM_CONFORMER_RMSD>
0.8

> <PUBCHEM_CONFORMER_DIVERSEORDER>
1
83
100
119
34
52
44
50
33
23
88
95
73
21
63
116
101
130
55
12
22
129
76
40
10
3
131
71
107
124
102
109
32
46
92
120
4
53
91
82
70
5
90
125
15
13
133
9
38
86
128
8
114
11
19
112
59
58
36
80
57
105
48
93
61
72
24
85
67
117
127
66
78
39
42
134
47
99
54
18
81
43
77
28
17
60
140
68
75
2
41
65
35
89
141
96
29
84
79
7
49
14
56
94
16
113
69
31
104
126
108
110
20
26
64
143
115
103
45
98
97
142
121
37
132
25
111
51
118
123
74
30
6
87
135
106
122
137
139
27
62
136
138

> <PUBCHEM_MMFF94_PARTIAL_CHARGES>
28
1 -0.18
12 0.05
13 0.41
14 0.11
15 -0.15
16 -0.3
17 0.28
18 -0.15
19 -0.15
2 -0.68
20 0.49
21 -0.15
22 0.16
29 0.4
3 -0.87
30 0.15
31 0.15
32 0.27
35 0.15
36 0.15
37 0.15
38 0.15
39 0.4
4 0.03
5 -0.62
6 -0.57
8 0.37
9 -0.05

> <PUBCHEM_EFFECTIVE_ROTOR_COUNT>
6

> <PUBCHEM_PHARMACOPHORE_FEATURES>
10
1 2 acceptor
1 2 donor
1 3 donor
1 4 cation
1 4 donor
1 6 acceptor
3 3 5 13 cation
5 4 9 11 14 16 rings
6 5 12 13 15 18 20 rings
6 6 11 14 19 21 22 rings

> <PUBCHEM_HEAVY_ATOM_COUNT>
22

> <PUBCHEM_ATOM_DEF_STEREO_COUNT>
0

> <PUBCHEM_ATOM_UDEF_STEREO_COUNT>
0

> <PUBCHEM_BOND_DEF_STEREO_COUNT>
0

> <PUBCHEM_BOND_UDEF_STEREO_COUNT>
0

> <PUBCHEM_ISOTOPIC_ATOM_COUNT>
0

> <PUBCHEM_COMPONENT_COUNT>
1

> <PUBCHEM_CACTVS_TAUTO_COUNT>
13

> <PUBCHEM_CONFORMER_ID>
02F859BC00000001

> <PUBCHEM_MMFF94_ENERGY>
49.9081

> <PUBCHEM_FEATURE_SELFOVERLAP>
50.859

> <PUBCHEM_SHAPE_FINGERPRINT>
10483366 6 18195785416059633461
10622 236 17842545525314804975
11069576 57 17479154810372553239
11578080 2 17771610533265956169
12107183 9 18341626944754405299
12174731 88 17757258289987228674
12553582 1 18337396044884341396
13009979 54 17915196808286013441
14114206 34 17603580803364388984
14659021 117 18334569136545056826
14844126 61 18264768757947390160
14950920 106 17489585658706044786
15042514 8 18337956688192892105
15230672 131 17545327376741887158
15537594 2 18337971076770651022
15842332 3 17768273536696816849
17492 89 18123189275687779059
17539 30 18336256839069193396
17780758 139 17846498097991423706
1813 80 18339375169903727044
18927931 339 18337958874964047310
19141452 34 18271531913840990849
19319366 153 16758028104946382759
2255824 54 17762061342680357869
235170 7 15647053789578714402
23598288 3 18189065225906252116
23845131 108 10447663417358552637
397830 11 18129644328962482114
4409770 3 18192144898046648589
484985 159 18264197037254324374
559249 180 18412545384294986203
56633871 153 18343027683260092075
6058803 2 17840323430011090897
6431902 208 18334294245832851506
70251023 43 18119524599252926697
7970288 3 18336827593189499914

> <PUBCHEM_SHAPE_MULTIPOLES>
428.83
11.21
5.47
1.14
23.95
5.21
0.05
-16.74
2.02
-1.16
-2.02
-1.38
-0.43
-1.39

> <PUBCHEM_SHAPE_SELFOVERLAP>
916.883

> <PUBCHEM_SHAPE_VOLUME>
239.7

> <PUBCHEM_COORDINATE_TYPE>
2
5
10

$$$$
49830296
  -OEChem-05102415013D

 49 51  0     0  0  0  0  0  0999 V2000
   -0.5836   -4.5640   -2.0342 Cl  0  0  0  0  0  0  0  0  0  0  0  0
    4.1668    1.4494   -1.6851 S   0  0  0  0  0  0  0  0  0  0  0  0
    3.9544    2.7537   -2.2815 O   0  0  0  0  0  0  0  0  0  0  0  0
    3.5029    0.2741   -2.2157 O   0  0  0  0  0  0  0  0  0  0  0  0
    3.8686    1.5205   -0.0094 N   0  0  0  0  0  0  0  0  0  0  0  0
    1.7640   -1.2419    0.7748 N   0  0  0  0  0  0  0  0  0  0  0  0
    0.5661   -2.7773   -0.5491 N   0  0  0  0  0  0  0  0  0  0  0  0
   -5.0393   -0.1694    0.9086 N   0  0  0  0  0  0  0  0  0  0  0  0
   -5.2843    2.1419    0.2752 N   0  0  0  0  0  0  0  0  0  0  0  0
    3.3530    0.1799    2.0488 C   0  0  0  0  0  0  0  0  0  0  0  0
    4.3020    0.3904    0.8452 C   0  0  0  0  0  0  0  0  0  0  0  0
    1.8885   -0.0713    1.6128 C   0  0  0  0  0  0  0  0  0  0  0  0
    3.3783    1.4182    2.9692 C   0  0  0  0  0  0  0  0  0  0  0  0
    3.8733   -1.0222    2.8657 C   0  0  0  0  0  0  0  0  0  0  0  0
    0.5677   -1.6655    0.2201 C   0  0  0  0  0  0  0  0  0  0  0  0
   -0.5616   -0.9114    0.4958 C   0  0  0  0  0  0  0  0  0  0  0  0
   -1.7703   -1.3249   -0.0534 C   0  0  0  0  0  0  0  0  0  0  0  0
    5.9145    1.1216   -1.6945 C   0  0  0  0  0  0  0  0  0  0  0  0
   -2.9702   -0.5784    0.2000 C   0  0  0  0  0  0  0  0  0  0  0  0
   -3.2847    0.7733   -0.1013 C   0  0  0  0  0  0  0  0  0  0  0  0
   -1.8122   -2.4638   -0.8501 C   0  0  0  0  0  0  0  0  0  0  0  0
   -4.5811    0.9963    0.3534 C   0  0  0  0  0  0  0  0  0  0  0  0
   -4.0683   -1.1330    0.8212 C   0  0  0  0  0  0  0  0  0  0  0  0
   -0.6269   -3.1485   -1.0655 C   0  0  0  0  0  0  0  0  0  0  0  0
   -2.6198    1.8493   -0.7115 C   0  0  0  0  0  0  0  0  0  0  0  0
   -3.3023    3.0597   -0.8185 C   0  0  0  0  0  0  0  0  0  0  0  0
   -4.5958    3.1431   -0.3211 C   0  0  0  0  0  0  0  0  0  0  0  0
    5.3172    0.6053    1.2007 H   0  0  0  0  0  0  0  0  0  0  0  0
    4.3535   -0.5275    0.2499 H   0  0  0  0  0  0  0  0  0  0  0  0
    1.2722   -0.1965    2.5130 H   0  0  0  0  0  0  0  0  0  0  0  0
    1.5226    0.8152    1.0795 H   0  0  0  0  0  0  0  0  0  0  0  0
    4.4013    1.6620    3.2775 H   0  0  0  0  0  0  0  0  0  0  0  0
    2.7910    1.2452    3.8785 H   0  0  0  0  0  0  0  0  0  0  0  0
    2.9584    2.3004    2.4743 H   0  0  0  0  0  0  0  0  0  0  0  0
    4.8722   -0.8183    3.2690 H   0  0  0  0  0  0  0  0  0  0  0  0
    3.2135   -1.2393    3.7134 H   0  0  0  0  0  0  0  0  0  0  0  0
    3.9496   -1.9315    2.2607 H   0  0  0  0  0  0  0  0  0  0  0  0
    3.9954    2.4395    0.4342 H   0  0  0  0  0  0  0  0  0  0  0  0
    2.5787   -1.8043    0.5609 H   0  0  0  0  0  0  0  0  0  0  0  0
   -0.5489   -0.0249    1.1206 H   0  0  0  0  0  0  0  0  0  0  0  0
    6.1123    0.1405   -1.2614 H   0  0  0  0  0  0  0  0  0  0  0  0
    6.4265    1.9107   -1.1405 H   0  0  0  0  0  0  0  0  0  0  0  0
    6.2483    1.1310   -2.7350 H   0  0  0  0  0  0  0  0  0  0  0  0
   -2.7405   -2.8087   -1.2965 H   0  0  0  0  0  0  0  0  0  0  0  0
   -4.2527   -2.1248    1.2119 H   0  0  0  0  0  0  0  0  0  0  0  0
   -5.9533   -0.2980    1.3200 H   0  0  0  0  0  0  0  0  0  0  0  0
   -1.6080    1.7521   -1.0915 H   0  0  0  0  0  0  0  0  0  0  0  0
   -2.8307    3.9196   -1.2821 H   0  0  0  0  0  0  0  0  0  0  0  0
   -5.1428    4.0793   -0.3963 H   0  0  0  0  0  0  0  0  0  0  0  0
  1 24  1  0  0  0  0
  2  3  2  0  0  0  0
  2  4  2  0  0  0  0
  2  5  1  0  0  0  0
  2 18  1  0  0  0  0
  5 11  1  0  0  0  0
  5 38  1  0  0  0  0
  6 12  1  0  0  0  0
  6 15  1  0  0  0  0
  6 39  1  0  0  0  0
  7 15  2  0  0  0  0
  7 24  1  0  0  0  0
  8 22  1  0  0  0  0
  8 23  1  0  0  0  0
  8 46  1  0  0  0  0
  9 22  1  0  0  0  0
  9 27  2  0  0  0  0
 10 11  1  0  0  0  0
 10 12  1  0  0  0  0
 10 13  1  0  0  0  0
 10 14  1  0  0  0  0
 11 28  1  0  0  0  0
 11 29  1  0  0  0  0
 12 30  1  0  0  0  0
 12 31  1  0  0  0  0
 13 32  1  0  0  0  0
 13 33  1  0  0  0  0
 13 34  1  0  0  0  0
 14 35  1  0  0  0  0
 14 36  1  0  0  0  0
 14 37  1  0  0  0  0
 15 16  1  0  0  0  0
 16 17  2  0  0  0  0
 16 40  1  0  0  0  0
 17 19  1  0  0  0  0
 17 21  1  0  0  0  0
 18 41  1  0  0  0  0
 18 42  1  0  0  0  0
 18 43  1  0  0  0  0
 19 20  1  0  0  0  0
 19 23  2  0  0  0  0
 20 22  2  0  0  0  0
 20 25  1  0  0  0  0
 21 24  2  0  0  0  0
 21 44  1  0  0  0  0
 23 45  1  0  0  0  0
 25 26  2  0  0  0  0
 25 47  1  0  0  0  0
 26 27  1  0  0  0  0
 26 48  1  0  0  0  0
 27 49  1  0  0  0  0
M  END
> <PUBCHEM_COMPOUND_CID>
49830296

> <PUBCHEM_CONFORMER_RMSD>
1

> <PUBCHEM_CONFORMER_DIVERSEORDER>
2
189
73
48
159
179
71
68
126
184
136
105
143
92
54
35
169
142
130
149
139
155
72
62
166
183
31
176
64
115
27
19
11
112
119
150
191
79
193
97
89
134
161
47
185
125
18
177
99
96
46
67
108
118
15
58
145
128
124
195
109
146
152
90
56
157
76
55
52
141
5
38
164
160
178
59
188
196
190
41
147
175
94
110
25
51
186
42
168
63
85
78
137
131
117
30
40
10
83
154
162
12
95
45
132
7
181
77
104
116
26
114
69
16
50
165
170
167
180
14
34
86
36
101
93
158
129
197
111
122
140
49
127
20
113
151
75
148
28
138
65
44
91
171
81
60
173
102
43
84
21
23
107
4
156
9
88
70
17
120
163
80
144
192
133
39
135
121
87
100
33
74
13
98
82
66
3
187
6
153
57
194
174
182
103
8
106
123
29
24
32
37
22
53
61
1
172

> <PUBCHEM_MMFF94_PARTIAL_CHARGES>
32
1 -0.18
11 0.36
12 0.37
15 0.41
16 -0.15
17 0.05
18 0.11
19 -0.05
2 1.33
21 -0.15
22 0.11
23 -0.3
24 0.49
25 -0.15
26 -0.15
27 0.16
3 -0.65
38 0.42
39 0.4
4 -0.65
40 0.15
44 0.15
45 0.15
46 0.27
47 0.15
48 0.15
49 0.15
5 -0.91
6 -0.87
7 -0.62
8 0.03
9 -0.57

> <PUBCHEM_EFFECTIVE_ROTOR_COUNT>
7

> <PUBCHEM_PHARMACOPHORE_FEATURES>
12
1 3 acceptor
1 4 acceptor
1 5 donor
1 6 donor
1 8 cation
1 8 donor
1 9 acceptor
3 10 13 14 hydrophobe
3 6 7 15 cation
5 8 19 20 22 23 rings
6 7 15 16 17 21 24 rings
6 9 20 22 25 26 27 rings

> <PUBCHEM_HEAVY_ATOM_COUNT>
27

> <PUBCHEM_ATOM_DEF_STEREO_COUNT>
0

> <PUBCHEM_ATOM_UDEF_STEREO_COUNT>
0

> <PUBCHEM_BOND_DEF_STEREO_COUNT>
0

> <PUBCHEM_BOND_UDEF_STEREO_COUNT>
0

> <PUBCHEM_ISOTOPIC_ATOM_COUNT>
0

> <PUBCHEM_COMPONENT_COUNT>
1

> <PUBCHEM_CACTVS_TAUTO_COUNT>
13

> <PUBCHEM_CONFORMER_ID>
02F8599800000002

> <PUBCHEM_MMFF94_ENERGY>
65.3377

> <PUBCHEM_FEATURE_SELFOVERLAP>
61.025

> <PUBCHEM_SHAPE_FINGERPRINT>
10165383 225 18058751168428500531
10615611 76 17894915165149796900
10670039 82 18409452509309103508
10906281 52 18335145268153645811
11135609 149 15911924895343412780
11595378 159 18113897199409017263
12403259 118 18187633674920321353
12422481 6 17823971251773671693
12596602 18 16805323301642108721
12788726 201 17972597968082017963
13617811 41 17910107250576941303
13726171 33 18336564766702429624
14341114 328 17530964687436855905
14347329 18 18411990143560032312
1454969 45 18339366370523468119
14950920 106 16950274105242963049
15021287 119 17822833318038145218
15163728 17 18269005210524449013
15297060 5 18199764565166828120
15403338 16 16950551173941910537
15575132 122 18334298699454994053
15842332 3 18043509811359226370
16988056 13 17404574477088404629
21033648 29 18202277009212442176
21033650 10 18267025149455622226
21223535 225 16629974204719215984
21302155 148 18334012770233537945
21458453 9 12614181900805457908
21756936 100 17896325890682600538
23559900 14 17976546001331769183
312425 83 18124336032319425444
3298306 158 18201717314944223815
3729539 64 17701843019568037222
38570 142 17458923612549861060
508706 21 17988075737446827006
5252454 2 18202007620516405643
59025328 239 14045748093248319952
6523845 18 17916883390583159619
6608658 132 18263919007268217887
7808743 9 18337958990479407604
9862522 239 18267282318864173371

> <PUBCHEM_SHAPE_MULTIPOLES>
524.72
12.11
4.31
2.48
2.11
3.13
-0.6
-10.9
0.36
-3.49
3.12
5.13
-0.4
-1.09

> <PUBCHEM_SHAPE_SELFOVERLAP>
1100.151

> <PUBCHEM_SHAPE_VOLUME>
303.4

> <PUBCHEM_COORDINATE_TYPE>
2
5
10

$$$$
49830298
  -OEChem-05102415013D

 34 36  0     0  0  0  0  0  0999 V2000
   -2.2388    4.2496    0.8187 Cl  0  0  0  0  0  0  0  0  0  0  0  0
    3.2125    0.7088   -1.5442 N   0  0  0  0  0  0  0  0  0  0  0  0
   -3.3938   -0.5259    0.0660 N   0  0  0  0  0  0  0  0  0  0  0  0
    4.4399   -0.9188   -0.2604 N   0  0  0  0  0  0  0  0  0  0  0  0
   -2.7424    1.7407    0.4049 N   0  0  0  0  0  0  0  0  0  0  0  0
   -4.1430   -4.0889   -0.5561 N   0  0  0  0  0  0  0  0  0  0  0  0
    1.2599    0.6941   -0.4776 C   0  0  0  0  0  0  0  0  0  0  0  0
    2.1242   -0.2322    0.1638 C   0  0  0  0  0  0  0  0  0  0  0  0
   -0.0975    1.0487   -0.1774 C   0  0  0  0  0  0  0  0  0  0  0  0
    3.3331   -0.1990   -0.5251 C   0  0  0  0  0  0  0  0  0  0  0  0
    1.9567    1.2580   -1.5244 C   0  0  0  0  0  0  0  0  0  0  0  0
   -1.0942    0.0794   -0.2019 C   0  0  0  0  0  0  0  0  0  0  0  0
   -2.3892    0.4732    0.0941 C   0  0  0  0  0  0  0  0  0  0  0  0
    2.0284   -1.1061    1.2591 C   0  0  0  0  0  0  0  0  0  0  0  0
   -0.4218    2.3636    0.1380 C   0  0  0  0  0  0  0  0  0  0  0  0
   -3.1155   -1.8889   -0.2500 C   0  0  0  0  0  0  0  0  0  0  0  0
   -4.4083   -2.6939   -0.2272 C   0  0  0  0  0  0  0  0  0  0  0  0
   -1.7469    2.6553    0.4189 C   0  0  0  0  0  0  0  0  0  0  0  0
    3.1460   -1.8754    1.5775 C   0  0  0  0  0  0  0  0  0  0  0  0
    4.2908   -1.7424    0.8032 C   0  0  0  0  0  0  0  0  0  0  0  0
    1.6777    1.9986   -2.2620 H   0  0  0  0  0  0  0  0  0  0  0  0
   -0.8256   -0.9411   -0.4526 H   0  0  0  0  0  0  0  0  0  0  0  0
    3.9388    0.9376   -2.2085 H   0  0  0  0  0  0  0  0  0  0  0  0
    1.1190   -1.1866    1.8458 H   0  0  0  0  0  0  0  0  0  0  0  0
    0.3356    3.1417    0.1695 H   0  0  0  0  0  0  0  0  0  0  0  0
   -2.4161   -2.3190    0.4781 H   0  0  0  0  0  0  0  0  0  0  0  0
   -2.6713   -1.9691   -1.2505 H   0  0  0  0  0  0  0  0  0  0  0  0
   -4.3358   -0.2237    0.2865 H   0  0  0  0  0  0  0  0  0  0  0  0
   -5.1282   -2.2814   -0.9437 H   0  0  0  0  0  0  0  0  0  0  0  0
   -4.8709   -2.6407    0.7650 H   0  0  0  0  0  0  0  0  0  0  0  0
    3.1207   -2.5647    2.4147 H   0  0  0  0  0  0  0  0  0  0  0  0
    5.1715   -2.3347    1.0374 H   0  0  0  0  0  0  0  0  0  0  0  0
   -5.0227   -4.6027   -0.5846 H   0  0  0  0  0  0  0  0  0  0  0  0
   -3.7452   -4.1519   -1.4924 H   0  0  0  0  0  0  0  0  0  0  0  0
  1 18  1  0  0  0  0
  2 10  1  0  0  0  0
  2 11  1  0  0  0  0
  2 23  1  0  0  0  0
  3 13  1  0  0  0  0
  3 16  1  0  0  0  0
  3 28  1  0  0  0  0
  4 10  1  0  0  0  0
  4 20  2  0  0  0  0
  5 13  2  0  0  0  0
  5 18  1  0  0  0  0
  6 17  1  0  0  0  0
  6 33  1  0  0  0  0
  6 34  1  0  0  0  0
  7  8  1  0  0  0  0
  7  9  1  0  0  0  0
  7 11  2  0  0  0  0
  8 10  2  0  0  0  0
  8 14  1  0  0  0  0
  9 12  2  0  0  0  0
  9 15  1  0  0  0  0
 11 21  1  0  0  0  0
 12 13  1  0  0  0  0
 12 22  1  0  0  0  0
 14 19  2  0  0  0  0
 14 24  1  0  0  0  0
 15 18  2  0  0  0  0
 15 25  1  0  0  0  0
 16 17  1  0  0  0  0
 16 26  1  0  0  0  0
 16 27  1  0  0  0  0
 17 29  1  0  0  0  0
 17 30  1  0  0  0  0
 19 20  1  0  0  0  0
 19 31  1  0  0  0  0
 20 32  1  0  0  0  0
M  END
> <PUBCHEM_COMPOUND_CID>
49830298

> <PUBCHEM_CONFORMER_RMSD>
0.6

> <PUBCHEM_CONFORMER_DIVERSEORDER>
3
6
21
4
13
22
34
44
61
20
42
54
9
33
31
57
45
25
14
47
30
55
28
62
41
32
53
50
52
26
24
36
1
12
37
29
8
10
15
56
5
18
27
39
59
46
51
40
38
2
7
35
23
19
17
11
43
16
49
60
58
48

> <PUBCHEM_MMFF94_PARTIAL_CHARGES>
29
1 -0.18
10 0.11
11 -0.3
12 -0.15
13 0.41
14 -0.15
15 -0.15
16 0.37
17 0.27
18 0.49
19 -0.15
2 0.03
20 0.16
21 0.15
22 0.15
23 0.27
24 0.15
25 0.15
28 0.4
3 -0.87
31 0.15
32 0.15
33 0.36
34 0.36
4 -0.57
5 -0.62
6 -0.99
7 -0.05
9 0.05

> <PUBCHEM_EFFECTIVE_ROTOR_COUNT>
4

> <PUBCHEM_PHARMACOPHORE_FEATURES>
10
1 2 cation
1 2 donor
1 3 donor
1 4 acceptor
1 6 cation
1 6 donor
3 3 5 13 cation
5 2 7 8 10 11 rings
6 4 8 10 14 19 20 rings
6 5 9 12 13 15 18 rings

> <PUBCHEM_HEAVY_ATOM_COUNT>
20

> <PUBCHEM_ATOM_DEF_STEREO_COUNT>
0

> <PUBCHEM_ATOM_UDEF_STEREO_COUNT>
0

> <PUBCHEM_BOND_DEF_STEREO_COUNT>
0

> <PUBCHEM_BOND_UDEF_STEREO_COUNT>
0

> <PUBCHEM_ISOTOPIC_ATOM_COUNT>
0

> <PUBCHEM_COMPONENT_COUNT>
1

> <PUBCHEM_CACTVS_TAUTO_COUNT>
13

> <PUBCHEM_CONFORMER_ID>
02F8599A00000003

> <PUBCHEM_MMFF94_ENERGY>
46.179

> <PUBCHEM_FEATURE_SELFOVERLAP>
50.859

> <PUBCHEM_SHAPE_FINGERPRINT>
10616163 171 18338800009385007250
114674 6 17398952068993797915
11578080 2 18042943459549425628
11806522 49 18260546736644775398
12500047 106 18053376600593417536
12549972 3 16413243914465036702
12553582 1 18340210807826792483
12788726 201 18337967726738338921
12824470 246 18260823813021256063
13140716 1 18272089426777492953
13583140 156 17344887660663607058
13631057 29 18410294748406557294
13955234 65 17405148916923140619
14178342 30 18266169527034293226
14576447 43 18187646950849161246
14787075 74 18120940770071701428
15042514 8 18340775862535416673
15099037 8 18333450932470268333
15342816 4 18268158741047472935
15375462 189 18262530293991178571
15842332 3 18115888337863678572
16752209 62 18268703922948251277
19141452 34 17903917756353008922
19433438 48 17897159114153486336
20291156 8 18337388348350738031
20602899 9 17829584207558253685
212916 134 17622994708151082633
21452121 199 18267577090906924473
21634736 98 18187933910446224806
23503958 8 18340198584049155594
23557571 272 17916867894045730064
23559900 14 17771068181885164436
23598288 3 18262819366812898249
23598291 2 18115039519339888204
23728640 28 18194683670674258161
3004659 81 18114453548225123079
463206 1 18191023615398733579
5385378 56 16900468140145776833
58807428 26 17621325632800063417
603831 33 18261685843101579188
6992083 37 17970917643673398252
7097593 13 17973442101185533682
7615 1 18187933833021022508
77492 1 18115600227304913572
7970288 3 18269555103620211191

> <PUBCHEM_SHAPE_MULTIPOLES>
388.56
8.47
4.32
1.17
1.6
0.01
0.02
7.38
-0.17
-7.57
-0.63
1.13
-0.05
-2.5

> <PUBCHEM_SHAPE_SELFOVERLAP>
841.593

> <PUBCHEM_SHAPE_VOLUME>
214.4

> <PUBCHEM_COORDINATE_TYPE>
2
5
10

$$$$
49830323
  -OEChem-05102415023D

 46 48  0     0  0  0  0  0  0999 V2000
   -0.9858    4.0072   -1.2813 Cl  0  0  0  0  0  0  0  0  0  0  0  0
   -5.9813    0.9692    0.1615 O   0  0  0  0  0  0  0  0  0  0  0  0
   -1.8310   -4.1063   -0.1888 O   0  0  0  0  0  0  0  0  0  0  0  0
   -2.6388   -0.5269   -0.0915 N   0  0  0  0  0  0  0  0  0  0  0  0
    3.6123   -0.4114    2.0950 N   0  0  0  0  0  0  0  0  0  0  0  0
   -1.7528    1.6179   -0.6311 N   0  0  0  0  0  0  0  0  0  0  0  0
    5.5404   -0.4448    0.6509 N   0  0  0  0  0  0  0  0  0  0  0  0
   -3.9495   -0.1065   -0.5344 C   0  0  0  0  0  0  0  0  0  0  0  0
   -2.4526   -1.8671    0.4185 C   0  0  0  0  0  0  0  0  0  0  0  0
   -1.5446    0.3718   -0.1498 C   0  0  0  0  0  0  0  0  0  0  0  0
    0.7649    0.7788    0.2469 C   0  0  0  0  0  0  0  0  0  0  0  0
    2.0574    0.3478    0.6962 C   0  0  0  0  0  0  0  0  0  0  0  0
   -0.3180   -0.0922    0.2972 C   0  0  0  0  0  0  0  0  0  0  0  0
    3.2875    0.2648   -0.0085 C   0  0  0  0  0  0  0  0  0  0  0  0
   -4.7088    0.5283    0.6182 C   0  0  0  0  0  0  0  0  0  0  0  0
   -2.0454   -2.8003   -0.7090 C   0  0  0  0  0  0  0  0  0  0  0  0
    4.2362   -0.2118    0.8916 C   0  0  0  0  0  0  0  0  0  0  0  0
    2.2878   -0.0749    1.9875 C   0  0  0  0  0  0  0  0  0  0  0  0
    0.5903    2.0689   -0.2418 C   0  0  0  0  0  0  0  0  0  0  0  0
   -0.6771    2.4362   -0.6645 C   0  0  0  0  0  0  0  0  0  0  0  0
    3.7183    0.5387   -1.3169 C   0  0  0  0  0  0  0  0  0  0  0  0
    5.0600    0.3149   -1.6205 C   0  0  0  0  0  0  0  0  0  0  0  0
    5.8993   -0.1639   -0.6234 C   0  0  0  0  0  0  0  0  0  0  0  0
   -6.7278    1.5774    1.2064 C   0  0  0  0  0  0  0  0  0  0  0  0
   -1.4410   -5.0157   -1.2085 C   0  0  0  0  0  0  0  0  0  0  0  0
   -3.9013    0.5778   -1.3909 H   0  0  0  0  0  0  0  0  0  0  0  0
   -4.5226   -0.9658   -0.9071 H   0  0  0  0  0  0  0  0  0  0  0  0
   -1.8026   -1.9422    1.2975 H   0  0  0  0  0  0  0  0  0  0  0  0
   -3.4103   -2.2368    0.8131 H   0  0  0  0  0  0  0  0  0  0  0  0
   -0.1354   -1.0962    0.6582 H   0  0  0  0  0  0  0  0  0  0  0  0
   -4.8434   -0.1976    1.4295 H   0  0  0  0  0  0  0  0  0  0  0  0
   -4.1525    1.3851    1.0173 H   0  0  0  0  0  0  0  0  0  0  0  0
   -2.8328   -2.8375   -1.4720 H   0  0  0  0  0  0  0  0  0  0  0  0
   -1.1251   -2.4521   -1.1922 H   0  0  0  0  0  0  0  0  0  0  0  0
    1.6344   -0.1666    2.8448 H   0  0  0  0  0  0  0  0  0  0  0  0
    1.4171    2.7717   -0.2895 H   0  0  0  0  0  0  0  0  0  0  0  0
    4.0609   -0.7541    2.9331 H   0  0  0  0  0  0  0  0  0  0  0  0
    3.0368    0.9112   -2.0748 H   0  0  0  0  0  0  0  0  0  0  0  0
    5.4401    0.5112   -2.6173 H   0  0  0  0  0  0  0  0  0  0  0  0
    6.9485   -0.3440   -0.8428 H   0  0  0  0  0  0  0  0  0  0  0  0
   -6.9070    0.8635    2.0162 H   0  0  0  0  0  0  0  0  0  0  0  0
   -6.2045    2.4589    1.5893 H   0  0  0  0  0  0  0  0  0  0  0  0
   -7.6926    1.8938    0.8008 H   0  0  0  0  0  0  0  0  0  0  0  0
   -2.2223   -5.0966   -1.9705 H   0  0  0  0  0  0  0  0  0  0  0  0
   -0.4989   -4.6986   -1.6661 H   0  0  0  0  0  0  0  0  0  0  0  0
   -1.2939   -5.9993   -0.7545 H   0  0  0  0  0  0  0  0  0  0  0  0
  1 20  1  0  0  0  0
  2 15  1  0  0  0  0
  2 24  1  0  0  0  0
  3 16  1  0  0  0  0
  3 25  1  0  0  0  0
  4  8  1  0  0  0  0
  4  9  1  0  0  0  0
  4 10  1  0  0  0  0
  5 17  1  0  0  0  0
  5 18  1  0  0  0  0
  5 37  1  0  0  0  0
  6 10  2  0  0  0  0
  6 20  1  0  0  0  0
  7 17  1  0  0  0  0
  7 23  2  0  0  0  0
  8 15  1  0  0  0  0
  8 26  1  0  0  0  0
  8 27  1  0  0  0  0
  9 16  1  0  0  0  0
  9 28  1  0  0  0  0
  9 29  1  0  0  0  0
 10 13  1  0  0  0  0
 11 12  1  0  0  0  0
 11 13  2  0  0  0  0
 11 19  1  0  0  0  0
 12 14  1  0  0  0  0
 12 18  2  0  0  0  0
 13 30  1  0  0  0  0
 14 17  2  0  0  0  0
 14 21  1  0  0  0  0
 15 31  1  0  0  0  0
 15 32  1  0  0  0  0
 16 33  1  0  0  0  0
 16 34  1  0  0  0  0
 18 35  1  0  0  0  0
 19 20  2  0  0  0  0
 19 36  1  0  0  0  0
 21 22  2  0  0  0  0
 21 38  1  0  0  0  0
 22 23  1  0  0  0  0
 22 39  1  0  0  0  0
 23 40  1  0  0  0  0
 24 41  1  0  0  0  0
 24 42  1  0  0  0  0
 24 43  1  0  0  0  0
 25 44  1  0  0  0  0
 25 45  1  0  0  0  0
 25 46  1  0  0  0  0
M  END
> <PUBCHEM_COMPOUND_CID>
49830323

> <PUBCHEM_CONFORMER_RMSD>
0.8

> <PUBCHEM_CONFORMER_DIVERSEORDER>
18
22
157
81
150
224
26
229
153
117
221
216
145
126
213
103
169
189
48
9
133
154
215
188
228
159
231
44
232
16
185
243
57
24
123
207
63
69
158
147
165
95
179
119
209
72
129
85
23
55
15
241
148
122
27
230
76
56
93
34
223
239
136
236
208
19
109
28
204
149
143
51
180
144
198
240
52
235
49
108
80
171
65
193
167
177
200
64
113
17
128
160
30
89
166
218
78
233
202
219
184
135
75
4
183
83
58
106
206
130
54
66
203
82
114
212
134
142
211
124
91
40
118
92
61
196
195
192
237
99
161
137
105
173
146
152
79
222
155
194
31
116
96
234
84
67
174
156
190
110
164
45
94
226
13
41
73
131
98
101
14
35
25
168
8
172
6
88
102
205
50
175
74
181
42
120
121
112
199
20
127
107
37
170
210
46
201
86
60
7
138
176
68
182
162
71
187
197
5
12
217
141
242
53
2
104
32
220
115
38
186
132
21
11
3
238
36
47
214
225
139
29
59
125
33
100
90
10
43
77
151
70
227
39
87
140
111
1
191
163
178
97
62

> <PUBCHEM_MMFF94_PARTIAL_CHARGES>
31
1 -0.18
10 0.41
11 0.05
12 -0.05
13 -0.15
15 0.28
16 0.28
17 0.11
18 -0.3
19 -0.15
2 -0.56
20 0.49
21 -0.15
22 -0.15
23 0.16
24 0.28
25 0.28
3 -0.56
30 0.15
35 0.15
36 0.15
37 0.27
38 0.15
39 0.15
4 -0.84
40 0.15
5 0.03
6 -0.62
7 -0.57
8 0.37
9 0.37

> <PUBCHEM_EFFECTIVE_ROTOR_COUNT>
8

> <PUBCHEM_PHARMACOPHORE_FEATURES>
9
1 2 acceptor
1 3 acceptor
1 5 cation
1 5 donor
1 7 acceptor
3 4 6 10 cation
5 5 12 14 17 18 rings
6 6 10 11 13 19 20 rings
6 7 14 17 21 22 23 rings

> <PUBCHEM_HEAVY_ATOM_COUNT>
25

> <PUBCHEM_ATOM_DEF_STEREO_COUNT>
0

> <PUBCHEM_ATOM_UDEF_STEREO_COUNT>
0

> <PUBCHEM_BOND_DEF_STEREO_COUNT>
0

> <PUBCHEM_BOND_UDEF_STEREO_COUNT>
0

> <PUBCHEM_ISOTOPIC_ATOM_COUNT>
0

> <PUBCHEM_COMPONENT_COUNT>
1

> <PUBCHEM_CACTVS_TAUTO_COUNT>
3

> <PUBCHEM_CONFORMER_ID>
02F859B300000012

> <PUBCHEM_MMFF94_ENERGY>
73.1983

> <PUBCHEM_FEATURE_SELFOVERLAP>
45.784

> <PUBCHEM_SHAPE_FINGERPRINT>
102385 1 17546164104842061461
10940486 97 18267028443057325869
11796584 16 18272938241496718622
12236239 1 17603586292517358748
12553582 1 18261098703702345081
12616971 3 17168413939919063362
12788726 201 18114740434718221712
13140716 1 18336540646339330609
13583140 156 15051441773490513173
13726171 33 18051439510350607596
13757389 114 18412272752650436261
13914758 101 14979687541967693659
14251757 5 18408323302039877637
14790565 3 18336554828480195029
15475509 8 18197799737935335421
15537594 2 17967530177112401778
15775530 1 17543629734834894797
16752209 62 18189879964074940984
18603816 31 17418083305028998710
19141452 34 18341048600883937515
19319366 153 17603300444899964194
20028762 73 18272083934046987215
20642791 35 18261680367003147540
20681677 155 18410012169212029018
21033648 29 18131627911645555187
21267235 1 17749393607761270176
21285901 2 18269848522841891157
22950370 63 18113338626238423225
23557571 272 18271241630493316080
23559900 14 18201155559414028816
352729 6 17540789734364522965
4017518 198 18131636668662749039
5385378 56 18127704729962314027
602551 16 18342731949360808154
70251023 43 17615974743325528427

> <PUBCHEM_SHAPE_MULTIPOLES>
484.7
12.55
4.14
1.47
1.23
4.77
0.35
-2.25
1.99
5.38
-2.62
-1.28
-0.02
-1.19

> <PUBCHEM_SHAPE_SELFOVERLAP>
1025.62

> <PUBCHEM_SHAPE_VOLUME>
274.9

> <PUBCHEM_COORDINATE_TYPE>
2
5
10

$$$$
49830295
  -OEChem-05102415023D

 43 45  0     0  0  0  0  0  0999 V2000
    0.4954   -4.7898   -1.0527 Cl  0  0  0  0  0  0  0  0  0  0  0  0
    2.6928   -0.5217    0.1270 N   0  0  0  0  0  0  0  0  0  0  0  0
    4.2185    1.9776   -1.8894 N   0  0  0  0  0  0  0  0  0  0  0  0
    1.5632   -2.5148   -0.4173 N   0  0  0  0  0  0  0  0  0  0  0  0
   -4.0603   -0.2311    1.4550 N   0  0  0  0  0  0  0  0  0  0  0  0
   -4.8099    1.7291    0.2722 N   0  0  0  0  0  0  0  0  0  0  0  0
    4.2127    1.3928    0.5705 C   0  0  0  0  0  0  0  0  0  0  0  0
    2.7594    0.8566    0.5561 C   0  0  0  0  0  0  0  0  0  0  0  0
    4.9052    1.2662   -0.8146 C   0  0  0  0  0  0  0  0  0  0  0  0
    4.1749    2.8698    1.0179 C   0  0  0  0  0  0  0  0  0  0  0  0
    5.0531    0.6108    1.6028 C   0  0  0  0  0  0  0  0  0  0  0  0
    1.5087   -1.2272   -0.0090 C   0  0  0  0  0  0  0  0  0  0  0  0
   -0.8638   -1.2524    0.1566 C   0  0  0  0  0  0  0  0  0  0  0  0
   -2.1105   -0.6038    0.4500 C   0  0  0  0  0  0  0  0  0  0  0  0
    0.3330   -0.5567    0.2876 C   0  0  0  0  0  0  0  0  0  0  0  0
   -2.7025    0.5446   -0.1393 C   0  0  0  0  0  0  0  0  0  0  0  0
   -3.9165    0.7500    0.5097 C   0  0  0  0  0  0  0  0  0  0  0  0
   -2.9683   -1.0592    1.4278 C   0  0  0  0  0  0  0  0  0  0  0  0
   -0.8484   -2.5787   -0.2610 C   0  0  0  0  0  0  0  0  0  0  0  0
    0.3802   -3.1587   -0.5329 C   0  0  0  0  0  0  0  0  0  0  0  0
   -2.3528    1.4474   -1.1567 C   0  0  0  0  0  0  0  0  0  0  0  0
   -3.2424    2.4810   -1.4437 C   0  0  0  0  0  0  0  0  0  0  0  0
   -4.4219    2.5682   -0.7165 C   0  0  0  0  0  0  0  0  0  0  0  0
    2.3403    0.9511    1.5667 H   0  0  0  0  0  0  0  0  0  0  0  0
    2.1599    1.4863   -0.1138 H   0  0  0  0  0  0  0  0  0  0  0  0
    5.9290    1.6556   -0.7484 H   0  0  0  0  0  0  0  0  0  0  0  0
    4.9990    0.2139   -1.1043 H   0  0  0  0  0  0  0  0  0  0  0  0
    3.7886    2.9609    2.0398 H   0  0  0  0  0  0  0  0  0  0  0  0
    5.1768    3.3134    1.0025 H   0  0  0  0  0  0  0  0  0  0  0  0
    3.5293    3.4757    0.3734 H   0  0  0  0  0  0  0  0  0  0  0  0
    4.5900    0.6422    2.5956 H   0  0  0  0  0  0  0  0  0  0  0  0
    6.0588    1.0373    1.6937 H   0  0  0  0  0  0  0  0  0  0  0  0
    5.1707   -0.4413    1.3229 H   0  0  0  0  0  0  0  0  0  0  0  0
    3.5424   -1.0312   -0.0837 H   0  0  0  0  0  0  0  0  0  0  0  0
    4.2272    2.9791   -1.7030 H   0  0  0  0  0  0  0  0  0  0  0  0
    4.7336    1.8498   -2.7597 H   0  0  0  0  0  0  0  0  0  0  0  0
    0.3027    0.4749    0.6213 H   0  0  0  0  0  0  0  0  0  0  0  0
   -2.9061   -1.8962    2.1105 H   0  0  0  0  0  0  0  0  0  0  0  0
   -1.7673   -3.1464   -0.3769 H   0  0  0  0  0  0  0  0  0  0  0  0
   -4.8506   -0.3283    2.0772 H   0  0  0  0  0  0  0  0  0  0  0  0
   -1.4230    1.3519   -1.7082 H   0  0  0  0  0  0  0  0  0  0  0  0
   -3.0165    3.2031   -2.2211 H   0  0  0  0  0  0  0  0  0  0  0  0
   -5.1271    3.3679   -0.9272 H   0  0  0  0  0  0  0  0  0  0  0  0
  1 20  1  0  0  0  0
  2  8  1  0  0  0  0
  2 12  1  0  0  0  0
  2 34  1  0  0  0  0
  3  9  1  0  0  0  0
  3 35  1  0  0  0  0
  3 36  1  0  0  0  0
  4 12  2  0  0  0  0
  4 20  1  0  0  0  0
  5 17  1  0  0  0  0
  5 18  1  0  0  0  0
  5 40  1  0  0  0  0
  6 17  1  0  0  0  0
  6 23  2  0  0  0  0
  7  8  1  0  0  0  0
  7  9  1  0  0  0  0
  7 10  1  0  0  0  0
  7 11  1  0  0  0  0
  8 24  1  0  0  0  0
  8 25  1  0  0  0  0
  9 26  1  0  0  0  0
  9 27  1  0  0  0  0
 10 28  1  0  0  0  0
 10 29  1  0  0  0  0
 10 30  1  0  0  0  0
 11 31  1  0  0  0  0
 11 32  1  0  0  0  0
 11 33  1  0  0  0  0
 12 15  1  0  0  0  0
 13 14  1  0  0  0  0
 13 15  2  0  0  0  0
 13 19  1  0  0  0  0
 14 16  1  0  0  0  0
 14 18  2  0  0  0  0
 15 37  1  0  0  0  0
 16 17  2  0  0  0  0
 16 21  1  0  0  0  0
 18 38  1  0  0  0  0
 19 20  2  0  0  0  0
 19 39  1  0  0  0  0
 21 22  2  0  0  0  0
 21 41  1  0  0  0  0
 22 23  1  0  0  0  0
 22 42  1  0  0  0  0
 23 43  1  0  0  0  0
M  END
> <PUBCHEM_COMPOUND_CID>
49830295

> <PUBCHEM_CONFORMER_RMSD>
0.8

> <PUBCHEM_CONFORMER_DIVERSEORDER>
3
116
124
72
125
28
47
60
126
91
113
117
51
14
90
112
76
105
82
77
129
2
97
128
102
104
93
19
65
111
12
114
120
74
108
15
122
61
57
43
118
86
10
110
106
107
35
31
70
38
20
53
127
123
40
42
50
33
9
130
64
44
94
49
56
121
68
119
101
83
81
78
80
34
87
75
99
11
85
6
115
54
23
52
32
13
59
88
39
69
36
67
96
79
71
63
45
30
89
95
92
58
24
27
17
100
5
22
62
26
37
109
73
84
46
18
25
8
16
41
29
55
21
98
48
7
66
1
103
4

> <PUBCHEM_MMFF94_PARTIAL_CHARGES>
29
1 -0.18
12 0.41
13 0.05
14 -0.05
15 -0.15
17 0.11
18 -0.3
19 -0.15
2 -0.87
20 0.49
21 -0.15
22 -0.15
23 0.16
3 -0.99
34 0.4
35 0.36
36 0.36
37 0.15
38 0.15
39 0.15
4 -0.62
40 0.27
41 0.15
42 0.15
43 0.15
5 0.03
6 -0.57
8 0.37
9 0.27

> <PUBCHEM_EFFECTIVE_ROTOR_COUNT>
5

> <PUBCHEM_PHARMACOPHORE_FEATURES>
11
1 2 donor
1 3 cation
1 3 donor
1 5 cation
1 5 donor
1 6 acceptor
3 2 4 12 cation
3 7 10 11 hydrophobe
5 5 14 16 17 18 rings
6 4 12 13 15 19 20 rings
6 6 16 17 21 22 23 rings

> <PUBCHEM_HEAVY_ATOM_COUNT>
23

> <PUBCHEM_ATOM_DEF_STEREO_COUNT>
0

> <PUBCHEM_ATOM_UDEF_STEREO_COUNT>
0

> <PUBCHEM_BOND_DEF_STEREO_COUNT>
0

> <PUBCHEM_BOND_UDEF_STEREO_COUNT>
0

> <PUBCHEM_ISOTOPIC_ATOM_COUNT>
0

> <PUBCHEM_COMPONENT_COUNT>
1

> <PUBCHEM_CACTVS_TAUTO_COUNT>
13

> <PUBCHEM_CONFORMER_ID>
02F8599700000003

> <PUBCHEM_MMFF94_ENERGY>
60.3701

> <PUBCHEM_FEATURE_SELFOVERLAP>
55.933

> <PUBCHEM_SHAPE_FINGERPRINT>
10165383 225 18271542982066476547
10319926 262 17822572707559001426
105312 117 18341893034794374908
10670039 82 18189065338181784412
11595378 159 16008752368498284276
12173636 292 18267860760664768662
12403259 118 18114174263639217128
12403259 415 18410865330047598978
12422481 6 17749385927953920460
12549972 3 17389969776196176859
12596602 18 15864074316163053233
12769317 202 18272079457694045488
12788726 201 17976525436701821762
12892183 10 17676204697382711274
12978246 48 18261395580627724652
13134695 92 17620470212458475511
13544653 18 8358262553242572082
13590594 115 16973372366398978849
14251764 30 13829267568291071269
14341114 328 16950565514626955608
14468879 13 18261114050010819273
14508225 48 17263830876931629206
14932701 244 17056083545094237597
14950920 106 16878213273163781744
16988056 13 17689706468359916460
17980427 23 17676492778430385087
20645477 56 18270125746175433586
21033648 29 18341325673920636016
21120745 212 17472992073526538246
21302155 148 18187649158415314012
23559900 14 18124310510890808347
27216 239 18333446573521659313
3057174 1 18202566150832747438
312425 83 15051745174513180128
314173 85 10953731210120781282
3298306 158 18412543193560789876
3729539 64 17983607163916364614
5104073 3 18116440245962188385
621550 34 18337965510751888171
633830 44 17489320675913230664
7064713 232 18333448750796389060
7399639 24 18409740556076712195
7808743 9 18119819251300506796
9862522 239 18335131033519067316
9925002 15 17617103946009026031
9981440 41 18411127026937412467

> <PUBCHEM_SHAPE_MULTIPOLES>
450.29
10.61
4.5
1.4
5.1
4.93
0.09
-11.91
-1.4
0.45
1.99
0.29
-0.48
1.4

> <PUBCHEM_SHAPE_SELFOVERLAP>
964.634

> <PUBCHEM_SHAPE_VOLUME>
252.3

> <PUBCHEM_COORDINATE_TYPE>
2
5
10

$$$$
49830310
  -OEChem-05102415023D

 43 46  0     0  0  0  0  0  0999 V2000
    1.5971   -4.6386   -0.6995 F   0  0  0  0  0  0  0  0  0  0  0  0
   -7.3921    1.0181   -0.1891 O   0  0  0  0  0  0  0  0  0  0  0  0
    4.9791    0.5066    1.6448 N   0  0  0  0  0  0  0  0  0  0  0  0
   -1.4751   -1.1380   -0.1996 N   0  0  0  0  0  0  0  0  0  0  0  0
    5.4702    2.4807    0.3543 N   0  0  0  0  0  0  0  0  0  0  0  0
    0.0714   -2.9314   -0.4582 N   0  0  0  0  0  0  0  0  0  0  0  0
    3.2399   -0.3048    0.5190 C   0  0  0  0  0  0  0  0  0  0  0  0
    3.6666    0.8887   -0.1212 C   0  0  0  0  0  0  0  0  0  0  0  0
    2.1650   -1.1953    0.1875 C   0  0  0  0  0  0  0  0  0  0  0  0
    4.7522    1.3696    0.6051 C   0  0  0  0  0  0  0  0  0  0  0  0
    4.0662   -0.5149    1.6019 C   0  0  0  0  0  0  0  0  0  0  0  0
    0.8557   -0.7281    0.1544 C   0  0  0  0  0  0  0  0  0  0  0  0
   -0.1461   -1.6283   -0.1711 C   0  0  0  0  0  0  0  0  0  0  0  0
   -1.8013    0.2205    0.0896 C   0  0  0  0  0  0  0  0  0  0  0  0
    3.2601    1.6298   -1.2427 C   0  0  0  0  0  0  0  0  0  0  0  0
    2.4286   -2.5295   -0.1021 C   0  0  0  0  0  0  0  0  0  0  0  0
   -3.2879    0.4330    0.0151 C   0  0  0  0  0  0  0  0  0  0  0  0
    1.3565   -3.3491   -0.4161 C   0  0  0  0  0  0  0  0  0  0  0  0
    3.9695    2.7899   -1.5482 C   0  0  0  0  0  0  0  0  0  0  0  0
   -3.9190    0.5214   -1.2257 C   0  0  0  0  0  0  0  0  0  0  0  0
   -4.0362    0.5414    1.1873 C   0  0  0  0  0  0  0  0  0  0  0  0
    5.0349    3.1544   -0.7359 C   0  0  0  0  0  0  0  0  0  0  0  0
   -5.2981    0.7183   -1.2945 C   0  0  0  0  0  0  0  0  0  0  0  0
   -5.4153    0.7384    1.1188 C   0  0  0  0  0  0  0  0  0  0  0  0
   -6.0463    0.8269   -0.1221 C   0  0  0  0  0  0  0  0  0  0  0  0
   -8.0957    1.1204    1.0481 C   0  0  0  0  0  0  0  0  0  0  0  0
    4.0908   -1.2951    2.3510 H   0  0  0  0  0  0  0  0  0  0  0  0
    0.6666    0.3147    0.3846 H   0  0  0  0  0  0  0  0  0  0  0  0
    5.7082    0.6087    2.3370 H   0  0  0  0  0  0  0  0  0  0  0  0
   -1.4557    0.5031    1.0923 H   0  0  0  0  0  0  0  0  0  0  0  0
   -1.3237    0.9051   -0.6236 H   0  0  0  0  0  0  0  0  0  0  0  0
    2.4231    1.3177   -1.8590 H   0  0  0  0  0  0  0  0  0  0  0  0
   -2.1953   -1.8105   -0.4385 H   0  0  0  0  0  0  0  0  0  0  0  0
    3.4357   -2.9342   -0.0923 H   0  0  0  0  0  0  0  0  0  0  0  0
    3.6935    3.3957   -2.4046 H   0  0  0  0  0  0  0  0  0  0  0  0
   -3.3464    0.4383   -2.1458 H   0  0  0  0  0  0  0  0  0  0  0  0
   -3.5577    0.4719    2.1607 H   0  0  0  0  0  0  0  0  0  0  0  0
    5.5990    4.0562   -0.9594 H   0  0  0  0  0  0  0  0  0  0  0  0
   -5.7842    0.7862   -2.2639 H   0  0  0  0  0  0  0  0  0  0  0  0
   -5.9355    0.8133    2.0676 H   0  0  0  0  0  0  0  0  0  0  0  0
   -9.1531    1.2709    0.8070 H   0  0  0  0  0  0  0  0  0  0  0  0
   -7.7718    1.9938    1.6242 H   0  0  0  0  0  0  0  0  0  0  0  0
   -8.0287    0.1929    1.6269 H   0  0  0  0  0  0  0  0  0  0  0  0
  1 18  1  0  0  0  0
  2 25  1  0  0  0  0
  2 26  1  0  0  0  0
  3 10  1  0  0  0  0
  3 11  1  0  0  0  0
  3 29  1  0  0  0  0
  4 13  1  0  0  0  0
  4 14  1  0  0  0  0
  4 33  1  0  0  0  0
  5 10  1  0  0  0  0
  5 22  2  0  0  0  0
  6 13  2  0  0  0  0
  6 18  1  0  0  0  0
  7  8  1  0  0  0  0
  7  9  1  0  0  0  0
  7 11  2  0  0  0  0
  8 10  2  0  0  0  0
  8 15  1  0  0  0  0
  9 12  2  0  0  0  0
  9 16  1  0  0  0  0
 11 27  1  0  0  0  0
 12 13  1  0  0  0  0
 12 28  1  0  0  0  0
 14 17  1  0  0  0  0
 14 30  1  0  0  0  0
 14 31  1  0  0  0  0
 15 19  2  0  0  0  0
 15 32  1  0  0  0  0
 16 18  2  0  0  0  0
 16 34  1  0  0  0  0
 17 20  2  0  0  0  0
 17 21  1  0  0  0  0
 19 22  1  0  0  0  0
 19 35  1  0  0  0  0
 20 23  1  0  0  0  0
 20 36  1  0  0  0  0
 21 24  2  0  0  0  0
 21 37  1  0  0  0  0
 22 38  1  0  0  0  0
 23 25  2  0  0  0  0
 23 39  1  0  0  0  0
 24 25  1  0  0  0  0
 24 40  1  0  0  0  0
 26 41  1  0  0  0  0
 26 42  1  0  0  0  0
 26 43  1  0  0  0  0
M  END
> <PUBCHEM_COMPOUND_CID>
49830310

> <PUBCHEM_CONFORMER_RMSD>
0.8

> <PUBCHEM_CONFORMER_DIVERSEORDER>
1
94
43
56
96
88
73
86
61
59
28
53
50
91
34
38
76
63
7
74
24
95
29
92
60
41
83
82
5
17
98
71
12
54
77
90
89
23
49
81
72
84
27
21
51
20
37
65
66
68
30
31
13
62
3
79
52
85
99
22
44
42
10
87
58
97
6
93
26
57
36
78
45
14
15
70
35
18
48
67
64
80
75
8
33
55
40
32
19
25
4
16
47
69
2
11
46
9
39

> <PUBCHEM_MMFF94_PARTIAL_CHARGES>
37
1 -0.19
10 0.11
11 -0.3
12 -0.15
13 0.41
14 0.51
15 -0.15
16 -0.15
17 -0.14
18 0.5
19 -0.15
2 -0.36
20 -0.15
21 -0.15
22 0.16
23 -0.15
24 -0.15
25 0.08
26 0.28
27 0.15
28 0.15
29 0.27
3 0.03
32 0.15
33 0.4
34 0.15
35 0.15
36 0.15
37 0.15
38 0.15
39 0.15
4 -0.87
40 0.15
5 -0.57
6 -0.62
7 -0.05
9 0.05

> <PUBCHEM_EFFECTIVE_ROTOR_COUNT>
5

> <PUBCHEM_PHARMACOPHORE_FEATURES>
10
1 2 acceptor
1 3 cation
1 3 donor
1 4 donor
1 5 acceptor
3 4 6 13 cation
5 3 7 8 10 11 rings
6 17 20 21 23 24 25 rings
6 5 8 10 15 19 22 rings
6 6 9 12 13 16 18 rings

> <PUBCHEM_HEAVY_ATOM_COUNT>
26

> <PUBCHEM_ATOM_DEF_STEREO_COUNT>
0

> <PUBCHEM_ATOM_UDEF_STEREO_COUNT>
0

> <PUBCHEM_BOND_DEF_STEREO_COUNT>
0

> <PUBCHEM_BOND_UDEF_STEREO_COUNT>
0

> <PUBCHEM_ISOTOPIC_ATOM_COUNT>
0

> <PUBCHEM_COMPONENT_COUNT>
1

> <PUBCHEM_CACTVS_TAUTO_COUNT>
13

> <PUBCHEM_CONFORMER_ID>
02F859A600000001

> <PUBCHEM_MMFF94_ENERGY>
80.6787

> <PUBCHEM_FEATURE_SELFOVERLAP>
50.859

> <PUBCHEM_SHAPE_FINGERPRINT>
10 15 17967535688177941025
10554248 39 17344058564973233165
10673678 19 18411705408586982537
12403259 118 18115581703115916154
12422481 6 17676757738857247196
12788726 201 17836919371597005878
13583140 156 16879045517171003022
13631057 29 18057590161928836487
13911852 28 9078849479805679685
13914758 101 7925918085065172999
13955234 65 18265895765566145339
14251764 75 18117565243541601508
14294032 229 18126855025700483335
14344974 204 9725151168658979316
14347332 77 8862948260627730083
14400156 188 17752203894636520346
14461889 52 18335144211328610187
15183329 4 13326864322633431313
15188451 53 13767924641929776801
15342168 16 18410009957171950798
17810953 82 18335420188383009140
17844677 252 18195532489635352525
17980427 23 17895193376252244623
18222031 100 11169910580492708202
19319366 153 18272926103249097135
19427546 62 18409731750993055811
1979834 28 18259990357400857157
20157964 124 18409730630174610627
20567600 234 18259705610233897453
21033650 10 15984559835643048251
21049683 271 18122352277157347190
21304303 94 12823295702162306644
21315764 119 13686301283882440081
21716022 299 15481005406223884758
221357 26 10952053346855347857
22149856 69 18342472422168075699
23081809 10 17560510691885977077
23559900 14 18263092019642400971
245318 6 17823994522049212212
3472631 163 18200877395593437340
397830 11 18041011661164188187
4073 2 18409452484462738707
439807 62 11527957754981407737
444735 82 18338804408370697121
474 4 18410853252647223722
49967989 163 16198997653982919557
59682541 52 16558763290848986676
6034566 193 18263932218186771501
7970288 3 8646501712503034808
960060 61 11959729386770736848
9849439 229 18271235149070720616

> <PUBCHEM_SHAPE_MULTIPOLES>
502
17.69
3.73
1.31
30.92
3.27
0.12
-15.64
3.55
-6.49
-1.57
-0.21
-0.41
-1

> <PUBCHEM_SHAPE_SELFOVERLAP>
1115.107

> <PUBCHEM_SHAPE_VOLUME>
270.1

> <PUBCHEM_COORDINATE_TYPE>
2
5
10

$$$$
49830306
  -OEChem-05102415023D

 43 45  0     0  0  0  0  0  0999 V2000
    0.3967   -4.4417   -1.0021 F   0  0  0  0  0  0  0  0  0  0  0  0
    2.6948   -0.5486    0.1140 N   0  0  0  0  0  0  0  0  0  0  0  0
    4.2290    1.9705   -1.8711 N   0  0  0  0  0  0  0  0  0  0  0  0
    1.5578   -2.5298   -0.4569 N   0  0  0  0  0  0  0  0  0  0  0  0
   -4.0578   -0.2534    1.4471 N   0  0  0  0  0  0  0  0  0  0  0  0
   -4.8004    1.7270    0.2938 N   0  0  0  0  0  0  0  0  0  0  0  0
    4.2221    1.3545    0.5811 C   0  0  0  0  0  0  0  0  0  0  0  0
    2.7667    0.8239    0.5607 C   0  0  0  0  0  0  0  0  0  0  0  0
    4.9135    1.2430   -0.8057 C   0  0  0  0  0  0  0  0  0  0  0  0
    4.1900    2.8258    1.0474 C   0  0  0  0  0  0  0  0  0  0  0  0
    5.0599    0.5564    1.6032 C   0  0  0  0  0  0  0  0  0  0  0  0
    1.5080   -1.2479   -0.0303 C   0  0  0  0  0  0  0  0  0  0  0  0
   -0.8646   -1.2661    0.1339 C   0  0  0  0  0  0  0  0  0  0  0  0
   -2.1091   -0.6176    0.4368 C   0  0  0  0  0  0  0  0  0  0  0  0
    0.3348   -0.5770    0.2751 C   0  0  0  0  0  0  0  0  0  0  0  0
   -2.6970    0.5415   -0.1353 C   0  0  0  0  0  0  0  0  0  0  0  0
   -3.9105    0.7414    0.5166 C   0  0  0  0  0  0  0  0  0  0  0  0
   -2.9686   -1.0847    1.4076 C   0  0  0  0  0  0  0  0  0  0  0  0
   -0.8542   -2.5864   -0.3024 C   0  0  0  0  0  0  0  0  0  0  0  0
    0.3722   -3.1674   -0.5820 C   0  0  0  0  0  0  0  0  0  0  0  0
   -2.3440    1.4582   -1.1390 C   0  0  0  0  0  0  0  0  0  0  0  0
   -3.2300    2.4991   -1.4106 C   0  0  0  0  0  0  0  0  0  0  0  0
   -4.4093    2.5794   -0.6821 C   0  0  0  0  0  0  0  0  0  0  0  0
    2.3484    0.9071    1.5726 H   0  0  0  0  0  0  0  0  0  0  0  0
    2.1692    1.4643   -0.1008 H   0  0  0  0  0  0  0  0  0  0  0  0
    5.9388    1.6276   -0.7350 H   0  0  0  0  0  0  0  0  0  0  0  0
    5.0032    0.1941   -1.1088 H   0  0  0  0  0  0  0  0  0  0  0  0
    3.8044    2.9053    2.0706 H   0  0  0  0  0  0  0  0  0  0  0  0
    5.1935    3.2658    1.0373 H   0  0  0  0  0  0  0  0  0  0  0  0
    3.5464    3.4423    0.4110 H   0  0  0  0  0  0  0  0  0  0  0  0
    4.5974    0.5769    2.5964 H   0  0  0  0  0  0  0  0  0  0  0  0
    6.0673    0.9779    1.6991 H   0  0  0  0  0  0  0  0  0  0  0  0
    5.1735   -0.4925    1.3099 H   0  0  0  0  0  0  0  0  0  0  0  0
    3.5424   -1.0583   -0.1038 H   0  0  0  0  0  0  0  0  0  0  0  0
    4.2416    2.9695   -1.6719 H   0  0  0  0  0  0  0  0  0  0  0  0
    4.7434    1.8519   -2.7431 H   0  0  0  0  0  0  0  0  0  0  0  0
    0.3084    0.4499    0.6232 H   0  0  0  0  0  0  0  0  0  0  0  0
   -2.9094   -1.9320    2.0778 H   0  0  0  0  0  0  0  0  0  0  0  0
   -1.7672   -3.1592   -0.4301 H   0  0  0  0  0  0  0  0  0  0  0  0
   -4.8485   -0.3570    2.0677 H   0  0  0  0  0  0  0  0  0  0  0  0
   -1.4145    1.3677   -1.6918 H   0  0  0  0  0  0  0  0  0  0  0  0
   -3.0016    3.2320   -2.1770 H   0  0  0  0  0  0  0  0  0  0  0  0
   -5.1117    3.3846   -0.8809 H   0  0  0  0  0  0  0  0  0  0  0  0
  1 20  1  0  0  0  0
  2  8  1  0  0  0  0
  2 12  1  0  0  0  0
  2 34  1  0  0  0  0
  3  9  1  0  0  0  0
  3 35  1  0  0  0  0
  3 36  1  0  0  0  0
  4 12  2  0  0  0  0
  4 20  1  0  0  0  0
  5 17  1  0  0  0  0
  5 18  1  0  0  0  0
  5 40  1  0  0  0  0
  6 17  1  0  0  0  0
  6 23  2  0  0  0  0
  7  8  1  0  0  0  0
  7  9  1  0  0  0  0
  7 10  1  0  0  0  0
  7 11  1  0  0  0  0
  8 24  1  0  0  0  0
  8 25  1  0  0  0  0
  9 26  1  0  0  0  0
  9 27  1  0  0  0  0
 10 28  1  0  0  0  0
 10 29  1  0  0  0  0
 10 30  1  0  0  0  0
 11 31  1  0  0  0  0
 11 32  1  0  0  0  0
 11 33  1  0  0  0  0
 12 15  1  0  0  0  0
 13 14  1  0  0  0  0
 13 15  2  0  0  0  0
 13 19  1  0  0  0  0
 14 16  1  0  0  0  0
 14 18  2  0  0  0  0
 15 37  1  0  0  0  0
 16 17  2  0  0  0  0
 16 21  1  0  0  0  0
 18 38  1  0  0  0  0
 19 20  2  0  0  0  0
 19 39  1  0  0  0  0
 21 22  2  0  0  0  0
 21 41  1  0  0  0  0
 22 23  1  0  0  0  0
 22 42  1  0  0  0  0
 23 43  1  0  0  0  0
M  END
> <PUBCHEM_COMPOUND_CID>
49830306

> <PUBCHEM_CONFORMER_RMSD>
0.8

> <PUBCHEM_CONFORMER_DIVERSEORDER>
4
120
27
87
126
125
97
16
105
116
78
92
93
38
103
80
40
85
64
75
102
22
73
44
108
112
46
89
48
94
3
70
62
84
12
91
114
61
121
107
60
82
98
109
32
127
50
72
59
9
124
10
128
15
81
49
76
45
37
86
66
117
35
65
77
47
23
74
101
26
14
100
111
39
119
31
41
90
57
25
122
43
33
55
2
63
30
67
110
8
56
20
36
118
68
95
83
51
29
104
58
52
71
96
11
24
28
79
54
69
5
18
115
6
42
34
1
88
13
21
99
106
53
123
19
7
113
17

> <PUBCHEM_MMFF94_PARTIAL_CHARGES>
29
1 -0.19
12 0.41
13 0.05
14 -0.05
15 -0.15
17 0.11
18 -0.3
19 -0.15
2 -0.87
20 0.5
21 -0.15
22 -0.15
23 0.16
3 -0.99
34 0.4
35 0.36
36 0.36
37 0.15
38 0.15
39 0.15
4 -0.62
40 0.27
41 0.15
42 0.15
43 0.15
5 0.03
6 -0.57
8 0.37
9 0.27

> <PUBCHEM_EFFECTIVE_ROTOR_COUNT>
5

> <PUBCHEM_PHARMACOPHORE_FEATURES>
11
1 2 donor
1 3 cation
1 3 donor
1 5 cation
1 5 donor
1 6 acceptor
3 2 4 12 cation
3 7 10 11 hydrophobe
5 5 14 16 17 18 rings
6 4 12 13 15 19 20 rings
6 6 16 17 21 22 23 rings

> <PUBCHEM_HEAVY_ATOM_COUNT>
23

> <PUBCHEM_ATOM_DEF_STEREO_COUNT>
0

> <PUBCHEM_ATOM_UDEF_STEREO_COUNT>
0

> <PUBCHEM_BOND_DEF_STEREO_COUNT>
0

> <PUBCHEM_BOND_UDEF_STEREO_COUNT>
0

> <PUBCHEM_ISOTOPIC_ATOM_COUNT>
0

> <PUBCHEM_COMPONENT_COUNT>
1

> <PUBCHEM_CACTVS_TAUTO_COUNT>
13

> <PUBCHEM_CONFORMER_ID>
02F859A200000004

> <PUBCHEM_MMFF94_ENERGY>
60.1033

> <PUBCHEM_FEATURE_SELFOVERLAP>
55.933

> <PUBCHEM_SHAPE_FINGERPRINT>
10165383 225 18271823353268208179
10319926 262 17894911776589477266
105312 117 18341893034783831884
10670039 82 18189065338181777916
11552529 35 16662902594170807682
11595378 159 16009034942976073204
12173636 292 18267860764996626726
12403259 118 18186513332659117472
12403259 415 18411146805019047866
12422481 6 17821724996973840284
12549972 3 17389970875697255131
12596602 18 15864355791166105201
12633257 1 16950001421995799917
12769317 202 18272078358150788696
12892183 10 17676486172359447906
12978246 48 18333734649652906236
13134695 92 17620188733207896567
13544653 18 8358262548921231034
13583140 156 16878765146227389978
14251764 30 13757208874731037525
14341114 328 17022904583641581216
14468879 13 18333453119025431873
14932701 244 16984306326531955037
14950920 106 16950552342173126096
15403338 16 16660907933622138137
17980427 23 17676774253412357503
1813 80 12468923022651429306
20645477 56 18270406121640529450
21033648 29 18342449379025408944
21302155 148 18187930629091776116
23559900 14 18124029035903496219
27216 239 18333728044203396169
312425 83 14979687580480475000
314173 85 11025788804158683226
3298306 158 18412824668511172188
3729539 64 17983607159610828326
474 4 18271236106595167795
5104073 3 18189060789964022169
621550 34 18337684031485471979
633830 44 17489601051399399576
7064713 232 18333731329579681780
7399639 24 18409459076831388515
7808743 9 18120100726277217436
9862522 239 18334848454746369588
9925002 15 17689443010770901855
9981440 41 18338505374875960979

> <PUBCHEM_SHAPE_MULTIPOLES>
441.15
10.81
4
1.37
5.84
2.88
0.03
-10.98
-1.75
-0.17
1.66
0.42
-0.42
1.3

> <PUBCHEM_SHAPE_SELFOVERLAP>
956.444

> <PUBCHEM_SHAPE_VOLUME>
244.7

> <PUBCHEM_COORDINATE_TYPE>
2
5
10

$$$$
49830311
  -OEChem-05102415023D

 26 28  0     0  0  0  0  0  0999 V2000
   -3.5349   -2.5947   -1.0490 Cl  0  0  0  0  0  0  0  0  0  0  0  0
    2.2639    1.6993   -1.0098 N   0  0  0  0  0  0  0  0  0  0  0  0
    4.0140    0.2916   -0.1384 N   0  0  0  0  0  0  0  0  0  0  0  0
   -3.6430   -0.3114    0.1737 N   0  0  0  0  0  0  0  0  0  0  0  0
   -3.9344    1.7544    1.3243 N   0  0  0  0  0  0  0  0  0  0  0  0
    0.4594    0.5841   -0.3386 C   0  0  0  0  0  0  0  0  0  0  0  0
    1.6091   -0.1240    0.1011 C   0  0  0  0  0  0  0  0  0  0  0  0
    2.7172    0.5974   -0.3334 C   0  0  0  0  0  0  0  0  0  0  0  0
   -0.9322    0.2809   -0.1656 C   0  0  0  0  0  0  0  0  0  0  0  0
    0.8932    1.7015   -1.0187 C   0  0  0  0  0  0  0  0  0  0  0  0
    1.8490   -1.3037    0.8243 C   0  0  0  0  0  0  0  0  0  0  0  0
   -1.7637    1.1738    0.5013 C   0  0  0  0  0  0  0  0  0  0  0  0
   -1.4545   -0.9079   -0.6631 C   0  0  0  0  0  0  0  0  0  0  0  0
    3.1745   -1.6675    1.0549 C   0  0  0  0  0  0  0  0  0  0  0  0
   -3.0993    0.8339    0.6433 C   0  0  0  0  0  0  0  0  0  0  0  0
    4.1857   -0.8532    0.5628 C   0  0  0  0  0  0  0  0  0  0  0  0
   -2.8040   -1.1547   -0.4691 C   0  0  0  0  0  0  0  0  0  0  0  0
    0.3561    2.5002   -1.5128 H   0  0  0  0  0  0  0  0  0  0  0  0
    2.8511    2.4023   -1.4366 H   0  0  0  0  0  0  0  0  0  0  0  0
    1.0363   -1.9187    1.1971 H   0  0  0  0  0  0  0  0  0  0  0  0
   -1.3811    2.1080    0.9034 H   0  0  0  0  0  0  0  0  0  0  0  0
   -0.8295   -1.6224   -1.1911 H   0  0  0  0  0  0  0  0  0  0  0  0
    3.4103   -2.5699    1.6087 H   0  0  0  0  0  0  0  0  0  0  0  0
    5.2249   -1.1218    0.7335 H   0  0  0  0  0  0  0  0  0  0  0  0
   -3.5178    2.3566    2.0237 H   0  0  0  0  0  0  0  0  0  0  0  0
   -4.9083    1.4988    1.4306 H   0  0  0  0  0  0  0  0  0  0  0  0
  1 17  1  0  0  0  0
  2  8  1  0  0  0  0
  2 10  1  0  0  0  0
  2 19  1  0  0  0  0
  3  8  1  0  0  0  0
  3 16  2  0  0  0  0
  4 15  2  0  0  0  0
  4 17  1  0  0  0  0
  5 15  1  0  0  0  0
  5 25  1  0  0  0  0
  5 26  1  0  0  0  0
  6  7  1  0  0  0  0
  6  9  1  0  0  0  0
  6 10  2  0  0  0  0
  7  8  2  0  0  0  0
  7 11  1  0  0  0  0
  9 12  2  0  0  0  0
  9 13  1  0  0  0  0
 10 18  1  0  0  0  0
 11 14  2  0  0  0  0
 11 20  1  0  0  0  0
 12 15  1  0  0  0  0
 12 21  1  0  0  0  0
 13 17  2  0  0  0  0
 13 22  1  0  0  0  0
 14 16  1  0  0  0  0
 14 23  1  0  0  0  0
 16 24  1  0  0  0  0
M  END
> <PUBCHEM_COMPOUND_CID>
49830311

> <PUBCHEM_CONFORMER_RMSD>
0.6

> <PUBCHEM_CONFORMER_DIVERSEORDER>
1
6
3
5
2
4

> <PUBCHEM_MMFF94_PARTIAL_CHARGES>
25
1 -0.18
10 -0.3
11 -0.15
12 -0.15
13 -0.15
14 -0.15
15 0.41
16 0.16
17 0.49
18 0.15
19 0.27
2 0.03
20 0.15
21 0.15
22 0.15
23 0.15
24 0.15
25 0.4
26 0.4
3 -0.57
4 -0.62
5 -0.9
6 -0.05
8 0.11
9 0.05

> <PUBCHEM_EFFECTIVE_ROTOR_COUNT>
1

> <PUBCHEM_PHARMACOPHORE_FEATURES>
8
1 2 cation
1 2 donor
1 3 acceptor
1 5 donor
3 4 5 15 cation
5 2 6 7 8 10 rings
6 3 7 8 11 14 16 rings
6 4 9 12 13 15 17 rings

> <PUBCHEM_HEAVY_ATOM_COUNT>
17

> <PUBCHEM_ATOM_DEF_STEREO_COUNT>
0

> <PUBCHEM_ATOM_UDEF_STEREO_COUNT>
0

> <PUBCHEM_BOND_DEF_STEREO_COUNT>
0

> <PUBCHEM_BOND_UDEF_STEREO_COUNT>
0

> <PUBCHEM_ISOTOPIC_ATOM_COUNT>
0

> <PUBCHEM_COMPONENT_COUNT>
1

> <PUBCHEM_CACTVS_TAUTO_COUNT>
13

> <PUBCHEM_CONFORMER_ID>
02F859A700000001

> <PUBCHEM_MMFF94_ENERGY>
45.7115

> <PUBCHEM_FEATURE_SELFOVERLAP>
40.709

> <PUBCHEM_SHAPE_FINGERPRINT>
10062212 137 18410854365312622923
10616163 171 18342176704088683743
11578080 2 18122593228384357757
11769659 78 18409721898042004175
11806522 49 18336538438884220350
12236239 1 18410576192780478537
12251169 10 18338800017911235625
12346177 29 18059846256165725527
12500047 106 17988639645319996449
12553582 1 17896313628298217730
13538477 17 18343021094790322281
13583140 156 16343407449900640222
13705890 14 14562813214539520002
13760787 19 18411426111037215588
13760787 5 17676210169614001678
14144814 61 18408603651729816728
14178342 30 18271238335467384054
14576447 43 18262793102987734502
15099037 8 18337949103649581271
15375462 189 18186801336123014864
15669948 3 18202286948177818807
15842332 3 18337122266547281597
16752209 62 18059849602066984151
16945 1 18269552732681166564
1813 80 17750809752915398566
18186145 218 14418135101784239436
19422 9 18410575119054654326
19433438 48 18336254661493971850
200 152 18336818801469845207
20279233 1 15913611657411519693
20281475 54 18409441471417277686
20361792 2 17749384836899812526
20645477 70 17458337584866836926
21267235 1 18336273395999034810
21634736 98 18120088635522234014
22112679 90 18412829100769858693
22445834 79 18407760335064822955
2255824 54 18114751546215003460
22646028 28 18409725196629881823
232386 152 18202280333458755885
23402539 116 17749100046725405026
23463225 33 18335702719546803358
23557571 272 17132123441757588465
23559900 14 17488756583915227116
23598291 2 18336553810171292100
2748010 2 17400925198106176453
312423 11 18336275646857089367
474 4 17971477540269205404
5104073 3 18410574002558252528
573450 72 18343861117378904491
603831 33 18125158483521358135
6992083 37 18408889499368590597
7097593 13 18338796697896377586
7615 1 18410855507684343941
77492 1 18410296929770051637
83771 10 18040714723682777516
84936 182 18123758814010515976
9981440 41 17471572604121211440

> <PUBCHEM_SHAPE_MULTIPOLES>
331.8
7.87
2.15
1.1
0.17
0.56
-0.05
1.99
-1.27
-1.29
0.23
-0.24
-0.08
-2.26

> <PUBCHEM_SHAPE_SELFOVERLAP>
735.042

> <PUBCHEM_SHAPE_VOLUME>
179.4

> <PUBCHEM_COORDINATE_TYPE>
2
5
10

$$$$
49830326
  -OEChem-05102415023D

 45 48  0     0  0  0  0  0  0999 V2000
    1.1221   -4.9421   -1.0258 Cl  0  0  0  0  0  0  0  0  0  0  0  0
   -1.7429   -1.0413    0.1066 N   0  0  0  0  0  0  0  0  0  0  0  0
    4.9017    0.2882    1.4634 N   0  0  0  0  0  0  0  0  0  0  0  0
   -0.2871   -2.8538   -0.4150 N   0  0  0  0  0  0  0  0  0  0  0  0
    5.3412    2.3373    0.2751 N   0  0  0  0  0  0  0  0  0  0  0  0
   -3.4744    0.5606    0.5921 C   0  0  0  0  0  0  0  0  0  0  0  0
    3.0427   -0.3919    0.4474 C   0  0  0  0  0  0  0  0  0  0  0  0
   -1.9953    0.3016    0.5163 C   0  0  0  0  0  0  0  0  0  0  0  0
   -4.2308    0.7579   -0.5629 C   0  0  0  0  0  0  0  0  0  0  0  0
    3.4501    0.8332   -0.1438 C   0  0  0  0  0  0  0  0  0  0  0  0
    1.9133   -1.2265    0.1541 C   0  0  0  0  0  0  0  0  0  0  0  0
   -5.6017    0.9969   -0.4666 C   0  0  0  0  0  0  0  0  0  0  0  0
    4.6117    1.2304    0.5119 C   0  0  0  0  0  0  0  0  0  0  0  0
   -0.4339   -1.5694   -0.0194 C   0  0  0  0  0  0  0  0  0  0  0  0
    3.9550   -0.7026    1.4326 C   0  0  0  0  0  0  0  0  0  0  0  0
    0.6228   -0.7226    0.2741 C   0  0  0  0  0  0  0  0  0  0  0  0
   -4.0887    0.6023    1.8437 C   0  0  0  0  0  0  0  0  0  0  0  0
   -3.5724    0.7124   -1.9055 C   0  0  0  0  0  0  0  0  0  0  0  0
   -6.2162    1.0387    0.7850 C   0  0  0  0  0  0  0  0  0  0  0  0
    2.1048   -2.5431   -0.2503 C   0  0  0  0  0  0  0  0  0  0  0  0
    2.9699    1.6649   -1.1686 C   0  0  0  0  0  0  0  0  0  0  0  0
   -5.4597    0.8415    1.9402 C   0  0  0  0  0  0  0  0  0  0  0  0
   -6.4343    1.2108   -1.6882 C   0  0  0  0  0  0  0  0  0  0  0  0
    0.9817   -3.3084   -0.5205 C   0  0  0  0  0  0  0  0  0  0  0  0
    3.6874    2.8247   -1.4554 C   0  0  0  0  0  0  0  0  0  0  0  0
    4.8328    3.1002   -0.7206 C   0  0  0  0  0  0  0  0  0  0  0  0
   -1.5613    0.4840    1.5085 H   0  0  0  0  0  0  0  0  0  0  0  0
   -1.5317    1.0321   -0.1574 H   0  0  0  0  0  0  0  0  0  0  0  0
   -2.5038   -1.6763   -0.1073 H   0  0  0  0  0  0  0  0  0  0  0  0
    4.0204   -1.5357    2.1197 H   0  0  0  0  0  0  0  0  0  0  0  0
    0.4911    0.3052    0.5939 H   0  0  0  0  0  0  0  0  0  0  0  0
   -3.5151    0.4481    2.7538 H   0  0  0  0  0  0  0  0  0  0  0  0
    5.6928    0.3199    2.0914 H   0  0  0  0  0  0  0  0  0  0  0  0
   -2.7459    1.4290   -1.9549 H   0  0  0  0  0  0  0  0  0  0  0  0
   -3.1922   -0.2934   -2.1106 H   0  0  0  0  0  0  0  0  0  0  0  0
   -4.2278    0.9696   -2.7405 H   0  0  0  0  0  0  0  0  0  0  0  0
   -7.2830    1.2238    0.8787 H   0  0  0  0  0  0  0  0  0  0  0  0
    3.1007   -2.9634   -0.3575 H   0  0  0  0  0  0  0  0  0  0  0  0
    2.0712    1.4213   -1.7259 H   0  0  0  0  0  0  0  0  0  0  0  0
   -5.9380    0.8734    2.9147 H   0  0  0  0  0  0  0  0  0  0  0  0
   -7.4912    1.3504   -1.4337 H   0  0  0  0  0  0  0  0  0  0  0  0
   -6.3839    0.3416   -2.3523 H   0  0  0  0  0  0  0  0  0  0  0  0
   -6.1160    2.1116   -2.2231 H   0  0  0  0  0  0  0  0  0  0  0  0
    3.3563    3.4986   -2.2383 H   0  0  0  0  0  0  0  0  0  0  0  0
    5.4044    4.0003   -0.9310 H   0  0  0  0  0  0  0  0  0  0  0  0
  1 24  1  0  0  0  0
  2  8  1  0  0  0  0
  2 14  1  0  0  0  0
  2 29  1  0  0  0  0
  3 13  1  0  0  0  0
  3 15  1  0  0  0  0
  3 33  1  0  0  0  0
  4 14  2  0  0  0  0
  4 24  1  0  0  0  0
  5 13  1  0  0  0  0
  5 26  2  0  0  0  0
  6  8  1  0  0  0  0
  6  9  1  0  0  0  0
  6 17  2  0  0  0  0
  7 10  1  0  0  0  0
  7 11  1  0  0  0  0
  7 15  2  0  0  0  0
  8 27  1  0  0  0  0
  8 28  1  0  0  0  0
  9 12  2  0  0  0  0
  9 18  1  0  0  0  0
 10 13  2  0  0  0  0
 10 21  1  0  0  0  0
 11 16  2  0  0  0  0
 11 20  1  0  0  0  0
 12 19  1  0  0  0  0
 12 23  1  0  0  0  0
 14 16  1  0  0  0  0
 15 30  1  0  0  0  0
 16 31  1  0  0  0  0
 17 22  1  0  0  0  0
 17 32  1  0  0  0  0
 18 34  1  0  0  0  0
 18 35  1  0  0  0  0
 18 36  1  0  0  0  0
 19 22  2  0  0  0  0
 19 37  1  0  0  0  0
 20 24  2  0  0  0  0
 20 38  1  0  0  0  0
 21 25  2  0  0  0  0
 21 39  1  0  0  0  0
 22 40  1  0  0  0  0
 23 41  1  0  0  0  0
 23 42  1  0  0  0  0
 23 43  1  0  0  0  0
 25 26  1  0  0  0  0
 25 44  1  0  0  0  0
 26 45  1  0  0  0  0
M  END
> <PUBCHEM_COMPOUND_CID>
49830326

> <PUBCHEM_CONFORMER_RMSD>
0.8

> <PUBCHEM_CONFORMER_DIVERSEORDER>
1
74
53
79
121
77
61
46
111
128
123
94
29
63
21
101
113
133
105
135
56
117
24
109
125
93
69
22
98
86
12
38
115
102
33
43
32
140
114
36
31
42
137
40
83
60
124
50
13
103
8
116
37
127
91
88
90
104
129
39
54
130
100
62
48
108
136
131
23
15
67
64
71
92
17
126
10
35
139
75
59
65
138
19
81
85
80
68
87
118
110
95
99
11
49
119
57
34
76
112
132
47
18
41
134
5
89
120
97
51
28
4
84
106
73
14
78
7
16
96
30
27
66
25
107
58
82
44
52
9
72
26
6
20
3
70
2
122
45
55

> <PUBCHEM_MMFF94_PARTIAL_CHARGES>
36
1 -0.18
11 0.05
12 -0.14
13 0.11
14 0.41
15 -0.3
16 -0.15
17 -0.15
18 0.14
19 -0.15
2 -0.87
20 -0.15
21 -0.15
22 -0.15
23 0.14
24 0.49
25 -0.15
26 0.16
29 0.4
3 0.03
30 0.15
31 0.15
32 0.15
33 0.27
37 0.15
38 0.15
39 0.15
4 -0.62
40 0.15
44 0.15
45 0.15
5 -0.57
6 -0.14
7 -0.05
8 0.51
9 -0.14

> <PUBCHEM_EFFECTIVE_ROTOR_COUNT>
4

> <PUBCHEM_PHARMACOPHORE_FEATURES>
9
1 2 donor
1 3 cation
1 3 donor
1 5 acceptor
3 2 4 14 cation
5 3 7 10 13 15 rings
6 4 11 14 16 20 24 rings
6 5 10 13 21 25 26 rings
6 6 9 12 17 19 22 rings

> <PUBCHEM_HEAVY_ATOM_COUNT>
26

> <PUBCHEM_ATOM_DEF_STEREO_COUNT>
0

> <PUBCHEM_ATOM_UDEF_STEREO_COUNT>
0

> <PUBCHEM_BOND_DEF_STEREO_COUNT>
0

> <PUBCHEM_BOND_UDEF_STEREO_COUNT>
0

> <PUBCHEM_ISOTOPIC_ATOM_COUNT>
0

> <PUBCHEM_COMPONENT_COUNT>
1

> <PUBCHEM_CACTVS_TAUTO_COUNT>
13

> <PUBCHEM_CONFORMER_ID>
02F859B600000001

> <PUBCHEM_MMFF94_ENERGY>
76.5615

> <PUBCHEM_FEATURE_SELFOVERLAP>
45.784

> <PUBCHEM_SHAPE_FINGERPRINT>
10090160 65 18340483383319789443
10319926 262 16225767398305081729
10763959 59 18188771635179662164
10937287 8 18340771558572283510
11331351 85 16695277340035744386
12128747 34 16227712348148029354
12403259 118 18115864268945728810
12422481 6 17676203593613201885
12788726 201 17838609307867724406
13540713 5 18045767143517653858
13583140 156 17240750753601293299
13631057 29 18058435669248671191
13911987 19 18340772623740224473
13955234 65 18267311932332143171
14251764 38 18115303354839188293
14251764 75 18191316081138641404
14294032 229 18055362580597027651
14774955 27 18410013243053962577
15183329 4 13830143762735328417
15188451 53 14562816607669341761
15342168 16 18411421717438568239
15348495 7 17240486922524386249
17810953 82 18335140899481420012
17844677 252 18196095430988335173
19319366 153 18201995504419029439
19427546 62 18410576158869873691
1979834 28 18260841375264056861
20157964 124 18337104580135356341
20715895 44 18261946345827161117
21033648 144 18187359965059768189
21033648 29 17530687567978768437
21033650 10 16199888188494634195
21049683 271 18051428275244123766
21716022 299 15265396664895544630
21792934 111 16371013976095098869
22149856 69 18271824402074022923
23559900 14 18264783064278400067
23569917 315 18343862225471125990
3004659 81 12031799045656973396
312425 54 15430029959473897049
397830 11 18041576793019011729
474 4 18412544288619448163
6034566 193 18264776634690531621
6608658 132 17274829009073003537
960060 61 11455888048724060392

> <PUBCHEM_SHAPE_MULTIPOLES>
517.01
15
4.15
1.61
15.34
5
0.07
-13.99
1.33
-6.34
-2.2
1.52
-0.55
-0.58

> <PUBCHEM_SHAPE_SELFOVERLAP>
1137.607

> <PUBCHEM_SHAPE_VOLUME>
280.7

> <PUBCHEM_COORDINATE_TYPE>
2
5
10

$$$$
49830331
  -OEChem-05102415023D

 33 35  0     0  0  0  0  0  0999 V2000
   -2.3621   -4.0195   -1.0482 Cl  0  0  0  0  0  0  0  0  0  0  0  0
   -4.8760    2.9496   -0.4667 O   0  0  0  0  0  0  0  0  0  0  0  0
    3.3029   -0.8890    1.3902 N   0  0  0  0  0  0  0  0  0  0  0  0
   -3.3280    0.6828    0.2411 N   0  0  0  0  0  0  0  0  0  0  0  0
    4.5210    0.8282    0.2192 N   0  0  0  0  0  0  0  0  0  0  0  0
   -2.7657   -1.5537   -0.3577 N   0  0  0  0  0  0  0  0  0  0  0  0
    1.3045   -0.7119    0.4281 C   0  0  0  0  0  0  0  0  0  0  0  0
    2.1674    0.2517   -0.1579 C   0  0  0  0  0  0  0  0  0  0  0  0
   -0.0759   -0.9971    0.1607 C   0  0  0  0  0  0  0  0  0  0  0  0
    3.4051    0.1151    0.4638 C   0  0  0  0  0  0  0  0  0  0  0  0
    2.0307   -1.3992    1.3766 C   0  0  0  0  0  0  0  0  0  0  0  0
   -1.0390   -0.0088    0.3325 C   0  0  0  0  0  0  0  0  0  0  0  0
   -2.3582   -0.3350    0.0623 C   0  0  0  0  0  0  0  0  0  0  0  0
    2.0490    1.2358   -1.1527 C   0  0  0  0  0  0  0  0  0  0  0  0
   -0.4562   -2.2633   -0.2701 C   0  0  0  0  0  0  0  0  0  0  0  0
   -2.9920    1.9980    0.6797 C   0  0  0  0  0  0  0  0  0  0  0  0
    3.1746    2.0034   -1.4461 C   0  0  0  0  0  0  0  0  0  0  0  0
   -1.8016   -2.4886   -0.5135 C   0  0  0  0  0  0  0  0  0  0  0  0
    4.3492    1.7605   -0.7467 C   0  0  0  0  0  0  0  0  0  0  0  0
   -4.2496    2.8411    0.8053 C   0  0  0  0  0  0  0  0  0  0  0  0
    1.7626   -2.2039    2.0482 H   0  0  0  0  0  0  0  0  0  0  0  0
    4.0515   -1.2046    1.9912 H   0  0  0  0  0  0  0  0  0  0  0  0
   -0.7270    0.9730    0.6719 H   0  0  0  0  0  0  0  0  0  0  0  0
    1.1165    1.4008   -1.6828 H   0  0  0  0  0  0  0  0  0  0  0  0
    0.2737   -3.0542   -0.4177 H   0  0  0  0  0  0  0  0  0  0  0  0
   -4.2885    0.4323    0.0364 H   0  0  0  0  0  0  0  0  0  0  0  0
   -2.3249    2.4778   -0.0467 H   0  0  0  0  0  0  0  0  0  0  0  0
   -2.5005    1.9746    1.6591 H   0  0  0  0  0  0  0  0  0  0  0  0
    3.1326    2.7755   -2.2068 H   0  0  0  0  0  0  0  0  0  0  0  0
    5.2365    2.3498   -0.9627 H   0  0  0  0  0  0  0  0  0  0  0  0
   -3.9998    3.8472    1.1563 H   0  0  0  0  0  0  0  0  0  0  0  0
   -4.9610    2.3881    1.5040 H   0  0  0  0  0  0  0  0  0  0  0  0
   -5.6705    3.4974   -0.3472 H   0  0  0  0  0  0  0  0  0  0  0  0
  1 18  1  0  0  0  0
  2 20  1  0  0  0  0
  2 33  1  0  0  0  0
  3 10  1  0  0  0  0
  3 11  1  0  0  0  0
  3 22  1  0  0  0  0
  4 13  1  0  0  0  0
  4 16  1  0  0  0  0
  4 26  1  0  0  0  0
  5 10  1  0  0  0  0
  5 19  2  0  0  0  0
  6 13  2  0  0  0  0
  6 18  1  0  0  0  0
  7  8  1  0  0  0  0
  7  9  1  0  0  0  0
  7 11  2  0  0  0  0
  8 10  2  0  0  0  0
  8 14  1  0  0  0  0
  9 12  2  0  0  0  0
  9 15  1  0  0  0  0
 11 21  1  0  0  0  0
 12 13  1  0  0  0  0
 12 23  1  0  0  0  0
 14 17  2  0  0  0  0
 14 24  1  0  0  0  0
 15 18  2  0  0  0  0
 15 25  1  0  0  0  0
 16 20  1  0  0  0  0
 16 27  1  0  0  0  0
 16 28  1  0  0  0  0
 17 19  1  0  0  0  0
 17 29  1  0  0  0  0
 19 30  1  0  0  0  0
 20 31  1  0  0  0  0
 20 32  1  0  0  0  0
M  END
> <PUBCHEM_COMPOUND_CID>
49830331

> <PUBCHEM_CONFORMER_RMSD>
0.6

> <PUBCHEM_CONFORMER_DIVERSEORDER>
3
43
21
58
49
56
31
22
5
59
57
14
13
8
27
37
45
28
17
30
39
42
26
60
7
1
54
34
25
6
55
4
40
18
53
36
24
35
2
38
15
12
61
19
20
52
10
16
29
23
32
47
51
9
33
11
46
41
44
48
50

> <PUBCHEM_MMFF94_PARTIAL_CHARGES>
28
1 -0.18
10 0.11
11 -0.3
12 -0.15
13 0.41
14 -0.15
15 -0.15
16 0.37
17 -0.15
18 0.49
19 0.16
2 -0.68
20 0.28
21 0.15
22 0.27
23 0.15
24 0.15
25 0.15
26 0.4
29 0.15
3 0.03
30 0.15
33 0.4
4 -0.87
5 -0.57
6 -0.62
7 -0.05
9 0.05

> <PUBCHEM_EFFECTIVE_ROTOR_COUNT>
4

> <PUBCHEM_PHARMACOPHORE_FEATURES>
10
1 2 acceptor
1 2 donor
1 3 cation
1 3 donor
1 4 donor
1 5 acceptor
3 4 6 13 cation
5 3 7 8 10 11 rings
6 5 8 10 14 17 19 rings
6 6 9 12 13 15 18 rings

> <PUBCHEM_HEAVY_ATOM_COUNT>
20

> <PUBCHEM_ATOM_DEF_STEREO_COUNT>
0

> <PUBCHEM_ATOM_UDEF_STEREO_COUNT>
0

> <PUBCHEM_BOND_DEF_STEREO_COUNT>
0

> <PUBCHEM_BOND_UDEF_STEREO_COUNT>
0

> <PUBCHEM_ISOTOPIC_ATOM_COUNT>
0

> <PUBCHEM_COMPONENT_COUNT>
1

> <PUBCHEM_CACTVS_TAUTO_COUNT>
13

> <PUBCHEM_CONFORMER_ID>
02F859BB00000003

> <PUBCHEM_MMFF94_ENERGY>
49.9731

> <PUBCHEM_FEATURE_SELFOVERLAP>
50.861

> <PUBCHEM_SHAPE_FINGERPRINT>
10382601 240 17530964675063702072
11640471 11 18334020505395284824
12107183 9 18264763260647883090
12173636 292 18342170107129186703
12403259 118 18260545576861642401
12553582 1 17766271355613297079
12633257 1 15285935704883940472
12788726 201 18266451186990419011
13583140 156 17202756120619194506
13965767 371 18189611648988912040
14251764 38 17682957687780676397
14739800 52 18126265675231849928
15342168 16 18266179435935470637
15842332 3 18261377979909417362
16752209 62 18200867474129215071
16988056 13 17041764188923602909
17134986 127 18267877077187237399
1741750 31 18342181042163226105
17810953 82 18120379752780060901
17834072 32 18338520742258759713
18785283 64 17979646628359061915
20715895 44 17685770229997843813
21033650 10 18122089708509920780
21524375 3 18336544915779220947
21756936 100 17679613244017496036
22907989 373 18269544117409417967
23557571 272 17917433172018820136
23558518 356 18408319990789858803
23559900 14 17917718977018923318
23598288 3 18409449219512159475
23598291 2 18261946431905841970
25147074 1 18188198892801234058
3057174 1 17986952943318278431
38570 142 17606432992810042156
394222 165 18191023392165254299
474 4 17604429746879600084
5048184 11 18410299090239179033
633830 44 17822305625481649998
7164475 11 18268146642130277278
7615 1 18188755262690704010
77492 1 18189608505315431530
7808743 9 18341054098453100344
7832392 63 18407761434924642804

> <PUBCHEM_SHAPE_MULTIPOLES>
387.67
8.75
3.92
1.17
0.96
0.89
0
-7.35
0.37
-6.25
0.99
0.75
0.04
-2.41

> <PUBCHEM_SHAPE_SELFOVERLAP>
841.328

> <PUBCHEM_SHAPE_VOLUME>
213.9

> <PUBCHEM_COORDINATE_TYPE>
2
5
10

$$$$
49830328
  -OEChem-05102415023D

 38 41  0     0  0  0  0  0  0999 V2000
    0.9681   -4.9864   -1.0661 Cl  0  0  0  0  0  0  0  0  0  0  0  0
   -4.1368   -1.6169    0.6476 F   0  0  0  0  0  0  0  0  0  0  0  0
   -3.1142    2.9105   -0.3621 F   0  0  0  0  0  0  0  0  0  0  0  0
   -1.3767    1.2282    0.5563 O   0  0  0  0  0  0  0  0  0  0  0  0
    4.8064    0.1353    1.5584 N   0  0  0  0  0  0  0  0  0  0  0  0
    5.3848    2.1491    0.3696 N   0  0  0  0  0  0  0  0  0  0  0  0
   -1.7897   -0.9794   -0.1361 N   0  0  0  0  0  0  0  0  0  0  0  0
   -0.3908   -2.8389   -0.5564 N   0  0  0  0  0  0  0  0  0  0  0  0
    2.9793   -0.4903    0.4535 C   0  0  0  0  0  0  0  0  0  0  0  0
    3.4631    0.7102   -0.1305 C   0  0  0  0  0  0  0  0  0  0  0  0
    1.8362   -1.2868    0.1110 C   0  0  0  0  0  0  0  0  0  0  0  0
    4.6027    1.0736    0.5811 C   0  0  0  0  0  0  0  0  0  0  0  0
    3.8260   -0.8202    1.4898 C   0  0  0  0  0  0  0  0  0  0  0  0
    0.5612   -0.7338    0.1559 C   0  0  0  0  0  0  0  0  0  0  0  0
    3.0693    1.5440   -1.1897 C   0  0  0  0  0  0  0  0  0  0  0  0
    1.9990   -2.6149   -0.2674 C   0  0  0  0  0  0  0  0  0  0  0  0
   -0.5097   -1.5447   -0.1842 C   0  0  0  0  0  0  0  0  0  0  0  0
    3.8442    2.6721   -1.4525 C   0  0  0  0  0  0  0  0  0  0  0  0
    0.8638   -3.3417   -0.5885 C   0  0  0  0  0  0  0  0  0  0  0  0
    4.9588    2.9158   -0.6613 C   0  0  0  0  0  0  0  0  0  0  0  0
   -3.5891    0.6390    0.1447 C   0  0  0  0  0  0  0  0  0  0  0  0
   -2.1375    0.3276    0.2187 C   0  0  0  0  0  0  0  0  0  0  0  0
   -4.5302   -0.3663    0.3669 C   0  0  0  0  0  0  0  0  0  0  0  0
   -4.0100    1.9366   -0.1467 C   0  0  0  0  0  0  0  0  0  0  0  0
   -5.8925   -0.0740    0.2976 C   0  0  0  0  0  0  0  0  0  0  0  0
   -5.3723    2.2288   -0.2160 C   0  0  0  0  0  0  0  0  0  0  0  0
   -6.3136    1.2235    0.0064 C   0  0  0  0  0  0  0  0  0  0  0  0
    3.8236   -1.6451    2.1898 H   0  0  0  0  0  0  0  0  0  0  0  0
    5.5639    0.1468    2.2272 H   0  0  0  0  0  0  0  0  0  0  0  0
    0.4944    0.2974    0.4620 H   0  0  0  0  0  0  0  0  0  0  0  0
    2.1927    1.3257   -1.7910 H   0  0  0  0  0  0  0  0  0  0  0  0
    2.9826   -3.0733   -0.3163 H   0  0  0  0  0  0  0  0  0  0  0  0
    3.5805    3.3463   -2.2604 H   0  0  0  0  0  0  0  0  0  0  0  0
   -2.5270   -1.6207   -0.4161 H   0  0  0  0  0  0  0  0  0  0  0  0
    5.5743    3.7910   -0.8522 H   0  0  0  0  0  0  0  0  0  0  0  0
   -6.6250   -0.8569    0.4706 H   0  0  0  0  0  0  0  0  0  0  0  0
   -5.6999    3.2390   -0.4429 H   0  0  0  0  0  0  0  0  0  0  0  0
   -7.3741    1.4511   -0.0474 H   0  0  0  0  0  0  0  0  0  0  0  0
  1 19  1  0  0  0  0
  2 23  1  0  0  0  0
  3 24  1  0  0  0  0
  4 22  2  0  0  0  0
  5 12  1  0  0  0  0
  5 13  1  0  0  0  0
  5 29  1  0  0  0  0
  6 12  1  0  0  0  0
  6 20  2  0  0  0  0
  7 17  1  0  0  0  0
  7 22  1  0  0  0  0
  7 34  1  0  0  0  0
  8 17  2  0  0  0  0
  8 19  1  0  0  0  0
  9 10  1  0  0  0  0
  9 11  1  0  0  0  0
  9 13  2  0  0  0  0
 10 12  2  0  0  0  0
 10 15  1  0  0  0  0
 11 14  2  0  0  0  0
 11 16  1  0  0  0  0
 13 28  1  0  0  0  0
 14 17  1  0  0  0  0
 14 30  1  0  0  0  0
 15 18  2  0  0  0  0
 15 31  1  0  0  0  0
 16 19  2  0  0  0  0
 16 32  1  0  0  0  0
 18 20  1  0  0  0  0
 18 33  1  0  0  0  0
 20 35  1  0  0  0  0
 21 22  1  0  0  0  0
 21 23  2  0  0  0  0
 21 24  1  0  0  0  0
 23 25  1  0  0  0  0
 24 26  2  0  0  0  0
 25 27  2  0  0  0  0
 25 36  1  0  0  0  0
 26 27  1  0  0  0  0
 26 37  1  0  0  0  0
 27 38  1  0  0  0  0
M  END
> <PUBCHEM_COMPOUND_CID>
49830328

> <PUBCHEM_CONFORMER_RMSD>
0.8

> <PUBCHEM_CONFORMER_DIVERSEORDER>
1
13
10
12
14
2
8
9
11
7
4
6
5
3

> <PUBCHEM_MMFF94_PARTIAL_CHARGES>
37
1 -0.18
11 0.05
12 0.11
13 -0.3
14 -0.15
15 -0.15
16 -0.15
17 0.43
18 -0.15
19 0.49
2 -0.19
20 0.16
21 0.09
22 0.54
23 0.19
24 0.19
25 -0.15
26 -0.15
27 -0.15
28 0.15
29 0.27
3 -0.19
30 0.15
31 0.15
32 0.15
33 0.15
34 0.37
35 0.15
36 0.15
37 0.15
38 0.15
4 -0.57
5 0.03
6 -0.57
7 -0.55
8 -0.62
9 -0.05

> <PUBCHEM_EFFECTIVE_ROTOR_COUNT>
4

> <PUBCHEM_PHARMACOPHORE_FEATURES>
9
1 4 acceptor
1 5 cation
1 5 donor
1 6 acceptor
1 7 donor
5 5 9 10 12 13 rings
6 21 23 24 25 26 27 rings
6 6 10 12 15 18 20 rings
6 8 11 14 16 17 19 rings

> <PUBCHEM_HEAVY_ATOM_COUNT>
27

> <PUBCHEM_ATOM_DEF_STEREO_COUNT>
0

> <PUBCHEM_ATOM_UDEF_STEREO_COUNT>
0

> <PUBCHEM_BOND_DEF_STEREO_COUNT>
0

> <PUBCHEM_BOND_UDEF_STEREO_COUNT>
0

> <PUBCHEM_ISOTOPIC_ATOM_COUNT>
0

> <PUBCHEM_COMPONENT_COUNT>
1

> <PUBCHEM_CACTVS_TAUTO_COUNT>
18

> <PUBCHEM_CONFORMER_ID>
02F859B800000001

> <PUBCHEM_MMFF94_ENERGY>
72.3666

> <PUBCHEM_FEATURE_SELFOVERLAP>
45.784

> <PUBCHEM_SHAPE_FINGERPRINT>
10090160 65 18410284796809447079
10411042 1 17547855153193500206
10483366 6 18193861279612267918
10670039 82 18129677317783589584
10763959 59 18335989653785721326
10835480 77 18265044740241651877
12403259 118 18334005120811783970
12403259 327 16877665651832192320
12422481 6 17894622630569249053
12633257 1 15358260519344988436
12788726 201 17905601465053770522
12978246 48 18408604798518395864
13785724 45 17903066743096714890
13965767 371 18113892784789318364
14251764 38 18262239898278327361
14294032 229 18128259088937320030
14347332 77 9079110039135463489
1454969 45 18340485694661411311
14767858 380 18199454619426243703
14790565 3 18339926046645829181
15840311 113 18050297960559364729
15961568 22 18113623369527569173
17810953 82 18408041797426085900
17980427 23 17967816106497842623
18222031 100 12035449436665771194
18681886 176 18410571791272788160
18785283 64 18338514115219537798
19319366 153 18201992201515332407
19427546 62 18410575050784109527
1979834 28 18335426729185619389
20715895 44 18118675522657643397
21033648 144 18040989665750461525
21033648 29 18129079248071701232
21049683 271 18052264986439385358
21133410 127 18113905914130991924
21302155 148 18410014376962297433
21756936 100 18270675510642429974
21859007 373 16807279208638108149
22149856 69 18200606822002976963
23522609 53 17631464376271464705
23559900 14 18194968431195902999
245318 6 17678476357015027436
350125 39 18339361864649022478
474 4 18409731724948341394
5104073 3 18192437373130339451
5219985 13 18341611563838513334
550186 72 18338233899137217165
6058803 2 17901371614373500034
67856867 119 18337670793995364891
7808743 9 18195808690218247816
960060 61 12175618499179547752
9981440 41 18336833081919846923

> <PUBCHEM_SHAPE_MULTIPOLES>
517.18
13.86
4.56
1.05
12.09
4.46
0.03
-12.62
1.76
-3.18
-2.21
-1.32
-0.03
-0.42

> <PUBCHEM_SHAPE_SELFOVERLAP>
1155.452

> <PUBCHEM_SHAPE_VOLUME>
276.9

> <PUBCHEM_COORDINATE_TYPE>
2
5
10

$$$$
49830338
  -OEChem-05102415023D

 38 41  0     0  0  0  0  0  0999 V2000
    0.6131   -4.9701   -0.9178 Cl  0  0  0  0  0  0  0  0  0  0  0  0
   -1.6480    1.3157    0.5405 O   0  0  0  0  0  0  0  0  0  0  0  0
    4.5271    0.1768    1.5403 N   0  0  0  0  0  0  0  0  0  0  0  0
    5.1228    2.1491    0.2919 N   0  0  0  0  0  0  0  0  0  0  0  0
   -2.0913   -0.9054   -0.0870 N   0  0  0  0  0  0  0  0  0  0  0  0
   -0.7172   -2.7928   -0.4619 N   0  0  0  0  0  0  0  0  0  0  0  0
    2.6864   -0.4577    0.4633 C   0  0  0  0  0  0  0  0  0  0  0  0
    3.1813    0.7199   -0.1570 C   0  0  0  0  0  0  0  0  0  0  0  0
    1.5320   -1.2496    0.1495 C   0  0  0  0  0  0  0  0  0  0  0  0
    4.3291    1.0895    0.5380 C   0  0  0  0  0  0  0  0  0  0  0  0
    3.5349   -0.7683    1.5040 C   0  0  0  0  0  0  0  0  0  0  0  0
    2.7915    1.5282   -1.2373 C   0  0  0  0  0  0  0  0  0  0  0  0
    0.2639   -0.6801    0.1855 C   0  0  0  0  0  0  0  0  0  0  0  0
    1.6767   -2.5897   -0.1920 C   0  0  0  0  0  0  0  0  0  0  0  0
   -0.8184   -1.4873   -0.1259 C   0  0  0  0  0  0  0  0  0  0  0  0
    3.5783    2.6390   -1.5361 C   0  0  0  0  0  0  0  0  0  0  0  0
    0.5311   -3.3114   -0.4864 C   0  0  0  0  0  0  0  0  0  0  0  0
    4.7002    2.8914   -0.7580 C   0  0  0  0  0  0  0  0  0  0  0  0
   -2.4215    0.4152    0.2325 C   0  0  0  0  0  0  0  0  0  0  0  0
   -3.8696    0.7420    0.1574 C   0  0  0  0  0  0  0  0  0  0  0  0
   -4.2772    2.0493   -0.1083 C   0  0  0  0  0  0  0  0  0  0  0  0
   -4.8211   -0.2593    0.3513 C   0  0  0  0  0  0  0  0  0  0  0  0
   -5.6363    2.3552   -0.1801 C   0  0  0  0  0  0  0  0  0  0  0  0
   -6.1801    0.0465    0.2795 C   0  0  0  0  0  0  0  0  0  0  0  0
   -6.5877    1.3539    0.0139 C   0  0  0  0  0  0  0  0  0  0  0  0
    3.5266   -1.5730    2.2271 H   0  0  0  0  0  0  0  0  0  0  0  0
    5.2884    0.1980    2.2045 H   0  0  0  0  0  0  0  0  0  0  0  0
    0.2113    0.3600    0.4626 H   0  0  0  0  0  0  0  0  0  0  0  0
    1.9089    1.3036   -1.8275 H   0  0  0  0  0  0  0  0  0  0  0  0
    2.6545   -3.0612   -0.2330 H   0  0  0  0  0  0  0  0  0  0  0  0
    3.3181    3.2933   -2.3613 H   0  0  0  0  0  0  0  0  0  0  0  0
    5.3250    3.7533   -0.9770 H   0  0  0  0  0  0  0  0  0  0  0  0
   -2.8259   -1.5470   -0.3692 H   0  0  0  0  0  0  0  0  0  0  0  0
   -3.5524    2.8432   -0.2678 H   0  0  0  0  0  0  0  0  0  0  0  0
   -4.5525   -1.2820    0.5976 H   0  0  0  0  0  0  0  0  0  0  0  0
   -5.9539    3.3729   -0.3877 H   0  0  0  0  0  0  0  0  0  0  0  0
   -6.9216   -0.7310    0.4389 H   0  0  0  0  0  0  0  0  0  0  0  0
   -7.6459    1.5924   -0.0402 H   0  0  0  0  0  0  0  0  0  0  0  0
  1 17  1  0  0  0  0
  2 19  2  0  0  0  0
  3 10  1  0  0  0  0
  3 11  1  0  0  0  0
  3 27  1  0  0  0  0
  4 10  1  0  0  0  0
  4 18  2  0  0  0  0
  5 15  1  0  0  0  0
  5 19  1  0  0  0  0
  5 33  1  0  0  0  0
  6 15  2  0  0  0  0
  6 17  1  0  0  0  0
  7  8  1  0  0  0  0
  7  9  1  0  0  0  0
  7 11  2  0  0  0  0
  8 10  2  0  0  0  0
  8 12  1  0  0  0  0
  9 13  2  0  0  0  0
  9 14  1  0  0  0  0
 11 26  1  0  0  0  0
 12 16  2  0  0  0  0
 12 29  1  0  0  0  0
 13 15  1  0  0  0  0
 13 28  1  0  0  0  0
 14 17  2  0  0  0  0
 14 30  1  0  0  0  0
 16 18  1  0  0  0  0
 16 31  1  0  0  0  0
 18 32  1  0  0  0  0
 19 20  1  0  0  0  0
 20 21  2  0  0  0  0
 20 22  1  0  0  0  0
 21 23  1  0  0  0  0
 21 34  1  0  0  0  0
 22 24  2  0  0  0  0
 22 35  1  0  0  0  0
 23 25  2  0  0  0  0
 23 36  1  0  0  0  0
 24 25  1  0  0  0  0
 24 37  1  0  0  0  0
 25 38  1  0  0  0  0
M  END
> <PUBCHEM_COMPOUND_CID>
49830338

> <PUBCHEM_CONFORMER_RMSD>
0.8

> <PUBCHEM_CONFORMER_DIVERSEORDER>
1
6
2
8
7
4
5
3

> <PUBCHEM_MMFF94_PARTIAL_CHARGES>
37
1 -0.18
10 0.11
11 -0.3
12 -0.15
13 -0.15
14 -0.15
15 0.43
16 -0.15
17 0.49
18 0.16
19 0.54
2 -0.57
20 0.09
21 -0.15
22 -0.15
23 -0.15
24 -0.15
25 -0.15
26 0.15
27 0.27
28 0.15
29 0.15
3 0.03
30 0.15
31 0.15
32 0.15
33 0.37
34 0.15
35 0.15
36 0.15
37 0.15
38 0.15
4 -0.57
5 -0.55
6 -0.62
7 -0.05
9 0.05

> <PUBCHEM_EFFECTIVE_ROTOR_COUNT>
4

> <PUBCHEM_PHARMACOPHORE_FEATURES>
9
1 2 acceptor
1 3 cation
1 3 donor
1 4 acceptor
1 5 donor
5 3 7 8 10 11 rings
6 20 21 22 23 24 25 rings
6 4 8 10 12 16 18 rings
6 6 9 13 14 15 17 rings

> <PUBCHEM_HEAVY_ATOM_COUNT>
25

> <PUBCHEM_ATOM_DEF_STEREO_COUNT>
0

> <PUBCHEM_ATOM_UDEF_STEREO_COUNT>
0

> <PUBCHEM_BOND_DEF_STEREO_COUNT>
0

> <PUBCHEM_BOND_UDEF_STEREO_COUNT>
0

> <PUBCHEM_ISOTOPIC_ATOM_COUNT>
0

> <PUBCHEM_COMPONENT_COUNT>
1

> <PUBCHEM_CACTVS_TAUTO_COUNT>
18

> <PUBCHEM_CONFORMER_ID>
02F859C200000001

> <PUBCHEM_MMFF94_ENERGY>
71.7691

> <PUBCHEM_FEATURE_SELFOVERLAP>
45.784

> <PUBCHEM_SHAPE_FINGERPRINT>
10090160 65 18410004412896763451
10411042 1 17475516079635967927
10483366 6 18193580904057488294
10763959 59 18263086522199442788
10835480 77 18264764360581847941
10937287 8 18411703231033165246
12107183 9 18335972130836131690
12342043 65 13552288352950427704
12403259 118 18261105326510221875
12403259 327 16805046207162638248
12422481 6 17749382638082844445
12633257 1 15213583484969383988
12788726 201 17905321085140720098
13540713 5 18045207496351807178
13583140 156 16951664935933694223
13785724 45 17902785259324315330
13955234 65 18195533597384221299
13965767 371 18113612409202955132
14117953 113 18337388245192538652
14251764 38 18189619337286619297
14294032 229 18127699433630003143
1454969 45 18340204215516294911
14767858 380 18271231833809570983
14790565 3 18339643468157903101
15183329 4 9079121068616546395
15342168 16 18409448089766403511
15840311 113 18049733911120708865
15961568 22 17968101902032766405
16988056 13 17978510828209184982
17810953 82 18335703827754309004
17844677 252 18124884452419452649
18222031 100 11746938685302054219
18681886 176 18410571786830108328
18785283 64 18337951160754877814
19319366 153 18201430351268698159
19427546 62 18410012096688643275
1979834 28 18334864878997033493
20157964 124 18337388237119197997
20505436 4 18115025329248068002
20567600 9 18196390138036864932
20715895 44 18190452754236677149
21033648 144 18040427824151777677
21049683 271 18051703135860454742
21302155 148 18337394941251715771
22149856 69 18272102565688814635
23559900 14 18194124006434556563
239999 70 18200316485675752079
245318 6 17678758922992591509
3472631 163 18268996551950041076
474 4 18409450250082374571
513532 50 18271817791596958996
5219985 13 18341049713175102270
6058803 2 17900809763852539754
6327066 14 18337954601060300140
67856867 119 18266175042014985267
7808743 9 18267303329881297040
960060 61 12175617395256966577
9981440 41 18409452522252281195

> <PUBCHEM_SHAPE_MULTIPOLES>
490.56
13.8
4.49
1.07
17.54
5.04
0.02
-13.92
1.49
-3.25
-2.14
-1.38
-0.14
-0.84

> <PUBCHEM_SHAPE_SELFOVERLAP>
1090.24

> <PUBCHEM_SHAPE_VOLUME>
262.3

> <PUBCHEM_COORDINATE_TYPE>
2
5
10

$$$$
49830318
  -OEChem-05102415023D

 25 27  0     0  0  0  0  0  0999 V2000
   -3.7428    1.8448    1.1035 F   0  0  0  0  0  0  0  0  0  0  0  0
    2.0701   -1.8282    0.6893 N   0  0  0  0  0  0  0  0  0  0  0  0
    3.7648   -0.1861    0.2044 N   0  0  0  0  0  0  0  0  0  0  0  0
    0.2310   -0.7040    0.1376 C   0  0  0  0  0  0  0  0  0  0  0  0
    1.3521    0.1368   -0.0920 C   0  0  0  0  0  0  0  0  0  0  0  0
    2.4828   -0.5937    0.2618 C   0  0  0  0  0  0  0  0  0  0  0  0
   -1.1675   -0.4491   -0.0558 C   0  0  0  0  0  0  0  0  0  0  0  0
    0.7035   -1.9064    0.6176 C   0  0  0  0  0  0  0  0  0  0  0  0
    1.5493    1.4451   -0.5630 C   0  0  0  0  0  0  0  0  0  0  0  0
   -1.7875    0.5946    0.6314 C   0  0  0  0  0  0  0  0  0  0  0  0
   -1.9073   -1.2447   -0.9307 C   0  0  0  0  0  0  0  0  0  0  0  0
    2.8579    1.9178   -0.6426 C   0  0  0  0  0  0  0  0  0  0  0  0
   -3.1473    0.8427    0.4436 C   0  0  0  0  0  0  0  0  0  0  0  0
   -3.2671   -0.9967   -1.1184 C   0  0  0  0  0  0  0  0  0  0  0  0
    3.8952    1.0800   -0.2557 C   0  0  0  0  0  0  0  0  0  0  0  0
   -3.8871    0.0472   -0.4314 C   0  0  0  0  0  0  0  0  0  0  0  0
    0.1963   -2.8133    0.9190 H   0  0  0  0  0  0  0  0  0  0  0  0
    2.6807   -2.5674    1.0087 H   0  0  0  0  0  0  0  0  0  0  0  0
    0.7171    2.0755   -0.8593 H   0  0  0  0  0  0  0  0  0  0  0  0
   -1.2291    1.2237    1.3206 H   0  0  0  0  0  0  0  0  0  0  0  0
   -1.4425   -2.0603   -1.4798 H   0  0  0  0  0  0  0  0  0  0  0  0
    3.0608    2.9215   -1.0005 H   0  0  0  0  0  0  0  0  0  0  0  0
   -3.8432   -1.6153   -1.8004 H   0  0  0  0  0  0  0  0  0  0  0  0
    4.9218    1.4324   -0.3113 H   0  0  0  0  0  0  0  0  0  0  0  0
   -4.9456    0.2407   -0.5776 H   0  0  0  0  0  0  0  0  0  0  0  0
  1 13  1  0  0  0  0
  2  6  1  0  0  0  0
  2  8  1  0  0  0  0
  2 18  1  0  0  0  0
  3  6  1  0  0  0  0
  3 15  2  0  0  0  0
  4  5  1  0  0  0  0
  4  7  1  0  0  0  0
  4  8  2  0  0  0  0
  5  6  2  0  0  0  0
  5  9  1  0  0  0  0
  7 10  2  0  0  0  0
  7 11  1  0  0  0  0
  8 17  1  0  0  0  0
  9 12  2  0  0  0  0
  9 19  1  0  0  0  0
 10 13  1  0  0  0  0
 10 20  1  0  0  0  0
 11 14  2  0  0  0  0
 11 21  1  0  0  0  0
 12 15  1  0  0  0  0
 12 22  1  0  0  0  0
 13 16  2  0  0  0  0
 14 16  1  0  0  0  0
 14 23  1  0  0  0  0
 15 24  1  0  0  0  0
 16 25  1  0  0  0  0
M  END
> <PUBCHEM_COMPOUND_CID>
49830318

> <PUBCHEM_CONFORMER_RMSD>
0.6

> <PUBCHEM_CONFORMER_DIVERSEORDER>
1
6
3
5
2
4

> <PUBCHEM_MMFF94_PARTIAL_CHARGES>
24
1 -0.19
10 -0.15
11 -0.15
12 -0.15
13 0.19
14 -0.15
15 0.16
16 -0.15
17 0.15
18 0.27
19 0.15
2 0.03
20 0.15
21 0.15
22 0.15
23 0.15
24 0.15
25 0.15
3 -0.57
4 -0.05
6 0.11
7 0.05
8 -0.3
9 -0.15

> <PUBCHEM_EFFECTIVE_ROTOR_COUNT>
1

> <PUBCHEM_PHARMACOPHORE_FEATURES>
6
1 2 cation
1 2 donor
1 3 acceptor
5 2 4 5 6 8 rings
6 3 5 6 9 12 15 rings
6 7 10 11 13 14 16 rings

> <PUBCHEM_HEAVY_ATOM_COUNT>
16

> <PUBCHEM_ATOM_DEF_STEREO_COUNT>
0

> <PUBCHEM_ATOM_UDEF_STEREO_COUNT>
0

> <PUBCHEM_BOND_DEF_STEREO_COUNT>
0

> <PUBCHEM_BOND_UDEF_STEREO_COUNT>
0

> <PUBCHEM_ISOTOPIC_ATOM_COUNT>
0

> <PUBCHEM_COMPONENT_COUNT>
1

> <PUBCHEM_CACTVS_TAUTO_COUNT>
2

> <PUBCHEM_CONFORMER_ID>
02F859AE00000001

> <PUBCHEM_MMFF94_ENERGY>
36.1512

> <PUBCHEM_FEATURE_SELFOVERLAP>
30.559

> <PUBCHEM_SHAPE_FINGERPRINT>
10465860 228 18338241466178236408
10980938 120 18333730191491754620
11471102 20 18259697904809205030
11543360 7 17059496382242894084
11640471 11 18271818877880896889
12236239 1 18342453742600820271
12491281 212 18410016575795610018
12553582 1 17757261588020847882
13583140 156 15719943756557149480
13705890 14 16056609776365609468
14144814 61 18408037403357667075
14897335 6 18336542815208007534
15279307 12 18413102866444108631
15309172 13 18040433321372494194
15342168 16 17822865297863646701
15442244 35 18194961846799496042
15536298 74 18342457032693468518
15653759 3 15357693097850343317
15669948 3 17917421056137832303
15775835 57 18413112757653239569
16752209 62 17631999910910136439
16945 1 18113894949162853522
1813 80 17977665304032130082
18186145 218 18334013904199278190
19049666 15 16227435275475892999
19422 9 18342736308320168399
200 152 18338789126454545343
201361 129 18409451353825646602
20233049 118 17703504415748872824
20279233 1 16225763008711225323
20510252 161 17686344578329303410
20645476 183 18343578556065923991
21524375 3 18334855077818152294
21639500 275 18188195602460425652
2255824 54 18334573495536344386
22854114 111 18333453140120511648
231179 274 17458895007429307708
23402539 116 17989203750757075748
23402655 69 18411416206774182924
23557571 272 16917347069090671217
23559900 14 17132115706896073698
23598291 2 18269548360525973463
25 1 18187366549545371318
2748010 2 17899709135100561602
3082319 5 18343297093630879183
474 4 18187928429762000036
57096353 35 18270390715387136775
633830 44 18336838553934489596
7364860 26 18341051809451737798
7615 1 18341032048275293955
77492 1 18342450435328406647
7832392 63 18341897350798871640
84936 182 18270960284022791864
9981440 41 17475783729697989664

> <PUBCHEM_SHAPE_MULTIPOLES>
312.04
7.29
1.91
0.95
1.01
0.02
0.05
2.47
0.44
-0.53
-0.21
0.57
0.02
-1.39

> <PUBCHEM_SHAPE_SELFOVERLAP>
703.919

> <PUBCHEM_SHAPE_VOLUME>
165.3

> <PUBCHEM_COORDINATE_TYPE>
2
5
10

$$$$
49830319
  -OEChem-05102415023D

 33 35  0     0  0  0  0  0  0999 V2000
   -2.2373   -4.1650   -1.0112 Cl  0  0  0  0  0  0  0  0  0  0  0  0
    3.2874   -0.7998    1.4363 N   0  0  0  0  0  0  0  0  0  0  0  0
    4.4691    0.9275    0.2430 N   0  0  0  0  0  0  0  0  0  0  0  0
   -3.3707    0.5329    0.1511 N   0  0  0  0  0  0  0  0  0  0  0  0
   -2.7291   -1.6978   -0.3858 N   0  0  0  0  0  0  0  0  0  0  0  0
    1.2998   -0.7089    0.4404 C   0  0  0  0  0  0  0  0  0  0  0  0
    2.1410    0.2678   -0.1553 C   0  0  0  0  0  0  0  0  0  0  0  0
   -0.0666   -1.0440    0.1594 C   0  0  0  0  0  0  0  0  0  0  0  0
    3.3726    0.1852    0.4878 C   0  0  0  0  0  0  0  0  0  0  0  0
    2.0323   -1.3504    1.4158 C   0  0  0  0  0  0  0  0  0  0  0  0
   -1.0628   -0.0831    0.2931 C   0  0  0  0  0  0  0  0  0  0  0  0
    2.0073    1.2242   -1.1751 C   0  0  0  0  0  0  0  0  0  0  0  0
   -0.4001   -2.3313   -0.2468 C   0  0  0  0  0  0  0  0  0  0  0  0
   -2.3668   -0.4573    0.0111 C   0  0  0  0  0  0  0  0  0  0  0  0
    3.1127    2.0201   -1.4698 C   0  0  0  0  0  0  0  0  0  0  0  0
   -1.7337   -2.6049   -0.5048 C   0  0  0  0  0  0  0  0  0  0  0  0
    4.2832    1.8311   -0.7473 C   0  0  0  0  0  0  0  0  0  0  0  0
   -3.0833    1.8680    0.5631 C   0  0  0  0  0  0  0  0  0  0  0  0
   -4.3602    2.6440    0.6114 C   0  0  0  0  0  0  0  0  0  0  0  0
   -4.5951    3.7416   -0.1165 C   0  0  0  0  0  0  0  0  0  0  0  0
    1.7792   -2.1473    2.1023 H   0  0  0  0  0  0  0  0  0  0  0  0
    4.0361   -1.0772    2.0558 H   0  0  0  0  0  0  0  0  0  0  0  0
   -0.7877    0.9149    0.6168 H   0  0  0  0  0  0  0  0  0  0  0  0
    1.0785    1.3470   -1.7227 H   0  0  0  0  0  0  0  0  0  0  0  0
    0.3566   -3.1018   -0.3646 H   0  0  0  0  0  0  0  0  0  0  0  0
    3.0584    2.7725   -2.2492 H   0  0  0  0  0  0  0  0  0  0  0  0
   -4.3181    0.2404   -0.0616 H   0  0  0  0  0  0  0  0  0  0  0  0
    5.1549    2.4431   -0.9640 H   0  0  0  0  0  0  0  0  0  0  0  0
   -2.3804    2.3494   -0.1278 H   0  0  0  0  0  0  0  0  0  0  0  0
   -2.6469    1.8839    1.5691 H   0  0  0  0  0  0  0  0  0  0  0  0
   -5.1334    2.3003    1.2944 H   0  0  0  0  0  0  0  0  0  0  0  0
   -3.8571    4.1346   -0.8069 H   0  0  0  0  0  0  0  0  0  0  0  0
   -5.5405    4.2659   -0.0295 H   0  0  0  0  0  0  0  0  0  0  0  0
  1 16  1  0  0  0  0
  2  9  1  0  0  0  0
  2 10  1  0  0  0  0
  2 22  1  0  0  0  0
  3  9  1  0  0  0  0
  3 17  2  0  0  0  0
  4 14  1  0  0  0  0
  4 18  1  0  0  0  0
  4 27  1  0  0  0  0
  5 14  2  0  0  0  0
  5 16  1  0  0  0  0
  6  7  1  0  0  0  0
  6  8  1  0  0  0  0
  6 10  2  0  0  0  0
  7  9  2  0  0  0  0
  7 12  1  0  0  0  0
  8 11  2  0  0  0  0
  8 13  1  0  0  0  0
 10 21  1  0  0  0  0
 11 14  1  0  0  0  0
 11 23  1  0  0  0  0
 12 15  2  0  0  0  0
 12 24  1  0  0  0  0
 13 16  2  0  0  0  0
 13 25  1  0  0  0  0
 15 17  1  0  0  0  0
 15 26  1  0  0  0  0
 17 28  1  0  0  0  0
 18 19  1  0  0  0  0
 18 29  1  0  0  0  0
 18 30  1  0  0  0  0
 19 20  2  0  0  0  0
 19 31  1  0  0  0  0
 20 32  1  0  0  0  0
 20 33  1  0  0  0  0
M  END
> <PUBCHEM_COMPOUND_CID>
49830319

> <PUBCHEM_CONFORMER_RMSD>
0.6

> <PUBCHEM_CONFORMER_DIVERSEORDER>
1
44
50
46
26
17
38
33
37
13
35
18
36
6
41
47
9
43
31
19
8
42
5
51
24
20
7
40
52
22
2
3
45
32
49
23
27
34
21
14
15
53
16
10
29
30
4
48
28
39
12
11
25

> <PUBCHEM_MMFF94_PARTIAL_CHARGES>
30
1 -0.18
10 -0.3
11 -0.15
12 -0.15
13 -0.15
14 0.41
15 -0.15
16 0.49
17 0.16
18 0.51
19 -0.29
2 0.03
20 -0.3
21 0.15
22 0.27
23 0.15
24 0.15
25 0.15
26 0.15
27 0.4
28 0.15
3 -0.57
31 0.15
32 0.15
33 0.15
4 -0.87
5 -0.62
6 -0.05
8 0.05
9 0.11

> <PUBCHEM_EFFECTIVE_ROTOR_COUNT>
4

> <PUBCHEM_PHARMACOPHORE_FEATURES>
9
1 2 cation
1 2 donor
1 20 hydrophobe
1 3 acceptor
1 4 donor
3 4 5 14 cation
5 2 6 7 9 10 rings
6 3 7 9 12 15 17 rings
6 5 8 11 13 14 16 rings

> <PUBCHEM_HEAVY_ATOM_COUNT>
20

> <PUBCHEM_ATOM_DEF_STEREO_COUNT>
0

> <PUBCHEM_ATOM_UDEF_STEREO_COUNT>
0

> <PUBCHEM_BOND_DEF_STEREO_COUNT>
0

> <PUBCHEM_BOND_UDEF_STEREO_COUNT>
0

> <PUBCHEM_ISOTOPIC_ATOM_COUNT>
0

> <PUBCHEM_COMPONENT_COUNT>
1

> <PUBCHEM_CACTVS_TAUTO_COUNT>
13

> <PUBCHEM_CONFORMER_ID>
02F859AF00000001

> <PUBCHEM_MMFF94_ENERGY>
50.1361

> <PUBCHEM_FEATURE_SELFOVERLAP>
45.783

> <PUBCHEM_SHAPE_FINGERPRINT>
10382601 240 17458343035824082760
11640471 11 18261117395484393704
12107183 9 18264480690459708754
12173636 292 18341606049216549879
12403259 118 18261108518246228153
12553582 1 17765708414239280327
12633257 1 15430333458784399184
12788726 201 18266169712003132907
13965767 371 18189045400495319632
14739800 52 18125702720951832280
15342168 16 18266178327855052741
15842332 3 18261096509222386258
15961568 22 17334202928445282976
16752209 62 18272643593222054839
16988056 13 17113539217073644069
17134986 127 18267877072913336615
1741750 31 18341898471990940977
17810953 82 18120379748516768125
17834072 32 18338238154927762865
18785283 64 17978798909194275595
19427546 62 18050289168596987073
20157964 124 17977097965123233909
20715895 44 17686333175666866849
21033650 10 18121244188357873116
21049683 271 17331978126985853079
21427221 339 18260543394796293762
21524375 3 18335980879204380931
21864079 5 18408611335674612469
22907989 373 18196641003224743087
23557571 272 17917151705647848848
23558518 356 18409443661977959211
23559900 14 17917436411131081926
23598288 3 18409167744487950139
23598291 2 18261663861701927850
3057174 1 17915459398729549303
38570 142 17533529874319785532
394222 165 18190459351284832563
46194498 28 14331683780090901865
474 4 17532089582632444284
5048184 11 18410297986501214169
633830 44 17750246936232323358
7064713 232 18338508647309269792
7164475 11 18267865175764613222
7615 1 18116415102754398210
7808743 9 18412548746790408688
7832392 63 18407761434919342068

> <PUBCHEM_SHAPE_MULTIPOLES>
393.54
8.78
4.36
1.15
0.14
1.22
0
-9.05
0.17
6.66
-1.38
-0.89
0.07
-2.31

> <PUBCHEM_SHAPE_SELFOVERLAP>
853.702

> <PUBCHEM_SHAPE_VOLUME>
216.5

> <PUBCHEM_COORDINATE_TYPE>
2
5
10

$$$$
49830325
  -OEChem-05102415033D

 39 41  0     1  0  0  0  0  0999 V2000
   -1.8263    3.5876   -1.7694 Cl  0  0  0  0  0  0  0  0  0  0  0  0
   -4.2759   -2.1358   -0.4296 O   0  0  0  0  0  0  0  0  0  0  0  0
   -2.6658   -0.3785    1.1067 N   0  0  0  0  0  0  0  0  0  0  0  0
    4.0755    1.1359    0.8706 N   0  0  0  0  0  0  0  0  0  0  0  0
   -2.1627    1.5062   -0.2614 N   0  0  0  0  0  0  0  0  0  0  0  0
    5.1157   -0.9260    0.1847 N   0  0  0  0  0  0  0  0  0  0  0  0
   -4.0733   -0.1891    0.9721 C   0  0  1  0  0  0  0  0  0  0  0  0
    1.9660    0.7572    0.2725 C   0  0  0  0  0  0  0  0  0  0  0  0
    0.5657    1.0116    0.0922 C   0  0  0  0  0  0  0  0  0  0  0  0
    2.7371   -0.3857   -0.0680 C   0  0  0  0  0  0  0  0  0  0  0  0
   -4.5379   -0.7382   -0.3747 C   0  0  0  0  0  0  0  0  0  0  0  0
   -1.7168    0.4724    0.4871 C   0  0  0  0  0  0  0  0  0  0  0  0
   -0.3772    0.1849    0.6932 C   0  0  0  0  0  0  0  0  0  0  0  0
    4.0472   -0.1175    0.3180 C   0  0  0  0  0  0  0  0  0  0  0  0
   -4.7758   -0.8918    2.1265 C   0  0  0  0  0  0  0  0  0  0  0  0
    2.8161    1.6765    0.8485 C   0  0  0  0  0  0  0  0  0  0  0  0
    0.1460    2.0854   -0.6851 C   0  0  0  0  0  0  0  0  0  0  0  0
    2.4810   -1.6315   -0.6636 C   0  0  0  0  0  0  0  0  0  0  0  0
   -1.2171    2.2879   -0.8294 C   0  0  0  0  0  0  0  0  0  0  0  0
    3.5525   -2.5078   -0.8259 C   0  0  0  0  0  0  0  0  0  0  0  0
    4.8111   -2.1107   -0.3945 C   0  0  0  0  0  0  0  0  0  0  0  0
   -4.6852   -2.6932   -1.6705 C   0  0  0  0  0  0  0  0  0  0  0  0
   -4.3289    0.8762    1.0332 H   0  0  0  0  0  0  0  0  0  0  0  0
   -2.3301   -1.3031    1.3591 H   0  0  0  0  0  0  0  0  0  0  0  0
   -5.6154   -0.5682   -0.4900 H   0  0  0  0  0  0  0  0  0  0  0  0
   -4.0239   -0.2387   -1.2040 H   0  0  0  0  0  0  0  0  0  0  0  0
   -0.0746   -0.6577    1.3088 H   0  0  0  0  0  0  0  0  0  0  0  0
   -4.4680   -0.4585    3.0850 H   0  0  0  0  0  0  0  0  0  0  0  0
   -5.8628   -0.7858    2.0450 H   0  0  0  0  0  0  0  0  0  0  0  0
   -4.5401   -1.9612    2.1658 H   0  0  0  0  0  0  0  0  0  0  0  0
    2.6450    2.6675    1.2474 H   0  0  0  0  0  0  0  0  0  0  0  0
    4.8993    1.5910    1.2385 H   0  0  0  0  0  0  0  0  0  0  0  0
    0.8588    2.7458   -1.1707 H   0  0  0  0  0  0  0  0  0  0  0  0
    1.4854   -1.9123   -0.9916 H   0  0  0  0  0  0  0  0  0  0  0  0
    3.4047   -3.4813   -1.2809 H   0  0  0  0  0  0  0  0  0  0  0  0
    5.6579   -2.7815   -0.5134 H   0  0  0  0  0  0  0  0  0  0  0  0
   -5.7617   -2.5599   -1.8150 H   0  0  0  0  0  0  0  0  0  0  0  0
   -4.1337   -2.2355   -2.4975 H   0  0  0  0  0  0  0  0  0  0  0  0
   -4.4654   -3.7640   -1.6558 H   0  0  0  0  0  0  0  0  0  0  0  0
  1 19  1  0  0  0  0
  2 11  1  0  0  0  0
  2 22  1  0  0  0  0
  3  7  1  0  0  0  0
  3 12  1  0  0  0  0
  3 24  1  0  0  0  0
  4 14  1  0  0  0  0
  4 16  1  0  0  0  0
  4 32  1  0  0  0  0
  5 12  2  0  0  0  0
  5 19  1  0  0  0  0
  6 14  1  0  0  0  0
  6 21  2  0  0  0  0
  7 11  1  0  0  0  0
  7 15  1  0  0  0  0
  7 23  1  0  0  0  0
  8  9  1  0  0  0  0
  8 10  1  0  0  0  0
  8 16  2  0  0  0  0
  9 13  2  0  0  0  0
  9 17  1  0  0  0  0
 10 14  2  0  0  0  0
 10 18  1  0  0  0  0
 11 25  1  0  0  0  0
 11 26  1  0  0  0  0
 12 13  1  0  0  0  0
 13 27  1  0  0  0  0
 15 28  1  0  0  0  0
 15 29  1  0  0  0  0
 15 30  1  0  0  0  0
 16 31  1  0  0  0  0
 17 19  2  0  0  0  0
 17 33  1  0  0  0  0
 18 20  2  0  0  0  0
 18 34  1  0  0  0  0
 20 21  1  0  0  0  0
 20 35  1  0  0  0  0
 21 36  1  0  0  0  0
 22 37  1  0  0  0  0
 22 38  1  0  0  0  0
 22 39  1  0  0  0  0
M  END
> <PUBCHEM_COMPOUND_CID>
49830325

> <PUBCHEM_CONFORMER_RMSD>
0.8

> <PUBCHEM_CONFORMER_DIVERSEORDER>
1
5
115
7
87
88
19
70
9
97
84
32
30
66
105
109
53
107
40
24
4
29
33
26
118
99
98
112
3
113
108
91
96
6
101
73
104
114
117
100
27
78
18
22
67
34
13
52
36
15
110
90
85
76
2
60
10
14
54
41
59
12
20
106
81
116
86
11
16
46
21
80
58
42
94
31
25
43
103
63
37
51
79
23
77
93
102
45
47
50
48
28
111
44
61
39
8
75
56
55
64
17
65
35
38
89
71
92
68
49
74
95
69
62
57
83
82
72

> <PUBCHEM_MMFF94_PARTIAL_CHARGES>
28
1 -0.18
11 0.28
12 0.41
13 -0.15
14 0.11
16 -0.3
17 -0.15
18 -0.15
19 0.49
2 -0.56
20 -0.15
21 0.16
22 0.28
24 0.4
27 0.15
3 -0.87
31 0.15
32 0.27
33 0.15
34 0.15
35 0.15
36 0.15
4 0.03
5 -0.62
6 -0.57
7 0.37
8 -0.05
9 0.05

> <PUBCHEM_EFFECTIVE_ROTOR_COUNT>
5

> <PUBCHEM_PHARMACOPHORE_FEATURES>
9
1 2 acceptor
1 3 donor
1 4 cation
1 4 donor
1 6 acceptor
3 3 5 12 cation
5 4 8 10 14 16 rings
6 5 9 12 13 17 19 rings
6 6 10 14 18 20 21 rings

> <PUBCHEM_HEAVY_ATOM_COUNT>
22

> <PUBCHEM_ATOM_DEF_STEREO_COUNT>
0

> <PUBCHEM_ATOM_UDEF_STEREO_COUNT>
1

> <PUBCHEM_BOND_DEF_STEREO_COUNT>
0

> <PUBCHEM_BOND_UDEF_STEREO_COUNT>
0

> <PUBCHEM_ISOTOPIC_ATOM_COUNT>
0

> <PUBCHEM_COMPONENT_COUNT>
1

> <PUBCHEM_CACTVS_TAUTO_COUNT>
13

> <PUBCHEM_CONFORMER_ID>
02F859B500000001

> <PUBCHEM_MMFF94_ENERGY>
58.8311

> <PUBCHEM_FEATURE_SELFOVERLAP>
45.783

> <PUBCHEM_SHAPE_FINGERPRINT>
10042902 136 18200889455529217678
11552529 35 18131350782880562697
12107183 9 17556319279618329395
12363563 72 17968388921727261993
12403259 118 15051737490953318049
12403259 226 18411130308471929968
12553582 1 18189349020433782085
12596602 18 16558753446694383874
12623949 98 18129961042769126447
12633257 1 17775297036164358587
13103583 49 17417826027728851355
13544653 18 18412831299935467665
13690498 29 18193011330710582270
14252887 29 18336273421889996032
14341114 328 16916799499557711443
16752209 62 17313100821911119544
17357779 13 18113613504198114701
17539 30 18187918427142254085
17857418 61 18273493481208214491
17959699 21 11241964880291006127
1813 80 18188221978282117925
19141452 34 18343025458904194113
20028762 73 17989483026774660030
20645477 70 18041848448735223193
21065201 7 17969780783452874600
21344244 181 17980177727124998477
21673915 165 18201997784714360615
221490 88 18339643318308833876
22620623 9 18187920617469891413
23402539 116 17967813834011580753
23557571 272 18186799141089317052
23559900 14 18262513693901004964
2871803 45 18187364307403722522
314173 85 18187368740005397649
44062 13 18046065947948977382
46194498 28 17680408242637968623
59025328 239 18051950788032090901
59755656 520 17903073335734506661
621550 34 18339355374843045392
6677587 24 15742966633217275701
6913067 236 18267283495384668696
7399639 24 18268975639933813192
9709674 26 18335424581701640122

> <PUBCHEM_SHAPE_MULTIPOLES>
428.83
11.28
3.34
1.44
0.68
1.01
-0.04
-9.3
-0.84
1.41
2.27
1.9
-0.05
1.05

> <PUBCHEM_SHAPE_SELFOVERLAP>
920.301

> <PUBCHEM_SHAPE_VOLUME>
239.4

> <PUBCHEM_COORDINATE_TYPE>
2
5
10

$$$$
49830327
  -OEChem-05102415033D

 37 39  0     0  0  0  0  0  0999 V2000
   -0.5223   -4.9143   -0.7636 Cl  0  0  0  0  0  0  0  0  0  0  0  0
   -2.3308    1.5787    0.4108 O   0  0  0  0  0  0  0  0  0  0  0  0
    3.7288    0.0172    1.5732 N   0  0  0  0  0  0  0  0  0  0  0  0
   -2.9246   -0.6287   -0.1404 N   0  0  0  0  0  0  0  0  0  0  0  0
    4.4927    1.8886    0.2627 N   0  0  0  0  0  0  0  0  0  0  0  0
   -1.6913   -2.6271   -0.4167 N   0  0  0  0  0  0  0  0  0  0  0  0
    1.8634   -0.5192    0.4854 C   0  0  0  0  0  0  0  0  0  0  0  0
    2.4562    0.5927   -0.1694 C   0  0  0  0  0  0  0  0  0  0  0  0
    0.6578   -1.2341    0.1794 C   0  0  0  0  0  0  0  0  0  0  0  0
    3.6171    0.9021    0.5333 C   0  0  0  0  0  0  0  0  0  0  0  0
    2.6687   -0.8516    1.5535 C   0  0  0  0  0  0  0  0  0  0  0  0
   -0.5640   -0.5701    0.1691 C   0  0  0  0  0  0  0  0  0  0  0  0
   -4.6521    1.0464    0.0349 C   0  0  0  0  0  0  0  0  0  0  0  0
    2.1467    1.3848   -1.2870 C   0  0  0  0  0  0  0  0  0  0  0  0
   -1.6990   -1.3054   -0.1324 C   0  0  0  0  0  0  0  0  0  0  0  0
    0.7063   -2.5937   -0.1081 C   0  0  0  0  0  0  0  0  0  0  0  0
   -4.9880    2.5106    0.3104 C   0  0  0  0  0  0  0  0  0  0  0  0
   -3.1646    0.7269    0.1220 C   0  0  0  0  0  0  0  0  0  0  0  0
    3.0202    2.4209   -1.6123 C   0  0  0  0  0  0  0  0  0  0  0  0
   -0.4856   -3.2384   -0.3971 C   0  0  0  0  0  0  0  0  0  0  0  0
   -6.4805    2.7950    0.2149 C   0  0  0  0  0  0  0  0  0  0  0  0
    4.1450    2.6187   -0.8226 C   0  0  0  0  0  0  0  0  0  0  0  0
    2.5875   -1.6243    2.3062 H   0  0  0  0  0  0  0  0  0  0  0  0
    4.4785    0.0073    2.2508 H   0  0  0  0  0  0  0  0  0  0  0  0
   -0.5439    0.4813    0.4053 H   0  0  0  0  0  0  0  0  0  0  0  0
   -4.9980    0.7723   -0.9693 H   0  0  0  0  0  0  0  0  0  0  0  0
   -5.1776    0.4065    0.7543 H   0  0  0  0  0  0  0  0  0  0  0  0
    1.2596    1.2040   -1.8853 H   0  0  0  0  0  0  0  0  0  0  0  0
   -4.6331    2.7887    1.3100 H   0  0  0  0  0  0  0  0  0  0  0  0
   -4.4540    3.1516   -0.4013 H   0  0  0  0  0  0  0  0  0  0  0  0
    1.6461   -3.1384   -0.1122 H   0  0  0  0  0  0  0  0  0  0  0  0
   -3.7249   -1.2148   -0.3655 H   0  0  0  0  0  0  0  0  0  0  0  0
    2.8240    3.0598   -2.4666 H   0  0  0  0  0  0  0  0  0  0  0  0
   -6.8590    2.5633   -0.7857 H   0  0  0  0  0  0  0  0  0  0  0  0
   -6.6791    3.8518    0.4183 H   0  0  0  0  0  0  0  0  0  0  0  0
   -7.0394    2.1968    0.9415 H   0  0  0  0  0  0  0  0  0  0  0  0
    4.8367    3.4221   -1.0619 H   0  0  0  0  0  0  0  0  0  0  0  0
  1 20  1  0  0  0  0
  2 18  2  0  0  0  0
  3 10  1  0  0  0  0
  3 11  1  0  0  0  0
  3 24  1  0  0  0  0
  4 15  1  0  0  0  0
  4 18  1  0  0  0  0
  4 32  1  0  0  0  0
  5 10  1  0  0  0  0
  5 22  2  0  0  0  0
  6 15  2  0  0  0  0
  6 20  1  0  0  0  0
  7  8  1  0  0  0  0
  7  9  1  0  0  0  0
  7 11  2  0  0  0  0
  8 10  2  0  0  0  0
  8 14  1  0  0  0  0
  9 12  2  0  0  0  0
  9 16  1  0  0  0  0
 11 23  1  0  0  0  0
 12 15  1  0  0  0  0
 12 25  1  0  0  0  0
 13 17  1  0  0  0  0
 13 18  1  0  0  0  0
 13 26  1  0  0  0  0
 13 27  1  0  0  0  0
 14 19  2  0  0  0  0
 14 28  1  0  0  0  0
 16 20  2  0  0  0  0
 16 31  1  0  0  0  0
 17 21  1  0  0  0  0
 17 29  1  0  0  0  0
 17 30  1  0  0  0  0
 19 22  1  0  0  0  0
 19 33  1  0  0  0  0
 21 34  1  0  0  0  0
 21 35  1  0  0  0  0
 21 36  1  0  0  0  0
 22 37  1  0  0  0  0
M  END
> <PUBCHEM_COMPOUND_CID>
49830327

> <PUBCHEM_CONFORMER_RMSD>
0.8

> <PUBCHEM_CONFORMER_DIVERSEORDER>
1
11
9
5
7
6
3
10
17
4
12
15
14
8
13
16
2

> <PUBCHEM_MMFF94_PARTIAL_CHARGES>
27
1 -0.18
10 0.11
11 -0.3
12 -0.15
13 0.06
14 -0.15
15 0.43
16 -0.15
18 0.57
19 -0.15
2 -0.57
20 0.49
22 0.16
23 0.15
24 0.27
25 0.15
28 0.15
3 0.03
31 0.15
32 0.37
33 0.15
37 0.15
4 -0.55
5 -0.57
6 -0.62
7 -0.05
9 0.05

> <PUBCHEM_EFFECTIVE_ROTOR_COUNT>
5

> <PUBCHEM_PHARMACOPHORE_FEATURES>
9
1 2 acceptor
1 21 hydrophobe
1 3 cation
1 3 donor
1 4 donor
1 5 acceptor
5 3 7 8 10 11 rings
6 5 8 10 14 19 22 rings
6 6 9 12 15 16 20 rings

> <PUBCHEM_HEAVY_ATOM_COUNT>
22

> <PUBCHEM_ATOM_DEF_STEREO_COUNT>
0

> <PUBCHEM_ATOM_UDEF_STEREO_COUNT>
0

> <PUBCHEM_BOND_DEF_STEREO_COUNT>
0

> <PUBCHEM_BOND_UDEF_STEREO_COUNT>
0

> <PUBCHEM_ISOTOPIC_ATOM_COUNT>
0

> <PUBCHEM_COMPONENT_COUNT>
1

> <PUBCHEM_CACTVS_TAUTO_COUNT>
18

> <PUBCHEM_CONFORMER_ID>
02F859B700000001

> <PUBCHEM_MMFF94_ENERGY>
49.8807

> <PUBCHEM_FEATURE_SELFOVERLAP>
45.783

> <PUBCHEM_SHAPE_FINGERPRINT>
10411042 1 17187285665462364799
10483366 6 18050029717933080806
10498660 4 18201726162603617321
10937287 8 18411985771356807653
11640471 11 18115307924683578964
12107183 9 18335972109187169962
12173636 292 18268985560806795303
12403259 118 18260826020935081417
12553582 1 17403451274685488526
12633257 1 15357983433408304744
12788726 201 18049155867639112883
13583140 156 16806710807906560779
13590594 115 17043466241581263403
13955234 65 18123478168368220939
13965767 371 18187636999219973932
14251764 75 18336281123025697053
14294032 229 18200038468727742243
14739800 52 17837190934279697712
14767858 380 18270100436497648423
14790565 3 18411985797395987513
15342168 16 18410011001492679293
15475509 8 18335427808229667286
15842332 3 17971734804678584634
16988056 13 17761775061750826797
17134986 127 18338808831189564422
17810953 82 18336267830038190197
17834072 32 18409449197847191301
18785283 64 18193840345119103747
19427546 62 18337955563860701619
1979834 28 18189909625752401941
20157964 124 18265612075372422133
20238998 120 8915142094103711374
20567600 9 18053962657713640277
20715895 44 18046053866612733877
20739085 24 18120650223939354490
21049683 271 17835249939072942438
22149856 69 18200043837958920649
235170 7 15267335219806714593
23557571 272 17843408633441460950
23558518 356 17686064189747801252
23559900 14 18122068607251400563
23598288 3 18191586556403192818
245318 6 17896339041635987621
38570 142 17387718182852223012
394222 165 18261668190780971883
474 4 18337955572044149097
5048184 11 18409169947505349509
6034566 193 18266197152612471097
6058803 2 18044361963077623690
7064713 232 18410002256338170040
7808743 9 18267024040821608352
7832392 63 18262517121616670892
960060 61 12175610777145159545
9849439 229 18342727538239699369
9981440 41 18410294722658249323

> <PUBCHEM_SHAPE_MULTIPOLES>
428.83
10.31
4.9
1.13
13.13
5.4
0.03
-14.89
1.29
1.62
-1.84
-1.33
-0.23
-1.7

> <PUBCHEM_SHAPE_SELFOVERLAP>
924.638

> <PUBCHEM_SHAPE_VOLUME>
237.5

> <PUBCHEM_COORDINATE_TYPE>
2
5
10

$$$$
49830324
  -OEChem-05102415033D

 39 41  0     0  0  0  0  0  0999 V2000
   -0.9629    4.7101    0.8606 Cl  0  0  0  0  0  0  0  0  0  0  0  0
   -5.1200   -1.1174   -1.1833 O   0  0  0  0  0  0  0  0  0  0  0  0
   -2.9078    0.2372    0.0582 N   0  0  0  0  0  0  0  0  0  0  0  0
    3.7898    0.2939   -1.5397 N   0  0  0  0  0  0  0  0  0  0  0  0
   -1.8973    2.3325    0.4202 N   0  0  0  0  0  0  0  0  0  0  0  0
    4.7107   -1.5368   -0.2731 N   0  0  0  0  0  0  0  0  0  0  0  0
   -4.3064   -1.7748   -0.2085 C   0  0  0  0  0  0  0  0  0  0  0  0
   -2.8956   -1.1702   -0.2740 C   0  0  0  0  0  0  0  0  0  0  0  0
   -4.2451   -3.2605   -0.5776 C   0  0  0  0  0  0  0  0  0  0  0  0
   -4.9522   -1.6038    1.1692 C   0  0  0  0  0  0  0  0  0  0  0  0
    1.8626    0.6102   -0.4733 C   0  0  0  0  0  0  0  0  0  0  0  0
    0.5869    1.1942   -0.1692 C   0  0  0  0  0  0  0  0  0  0  0  0
   -1.7707    1.0261    0.0960 C   0  0  0  0  0  0  0  0  0  0  0  0
    2.5502   -0.4598    0.1583 C   0  0  0  0  0  0  0  0  0  0  0  0
   -0.5640    0.4148   -0.2041 C   0  0  0  0  0  0  0  0  0  0  0  0
    3.7476   -0.6316   -0.5302 C   0  0  0  0  0  0  0  0  0  0  0  0
    2.6495    1.0542   -1.5140 C   0  0  0  0  0  0  0  0  0  0  0  0
    0.4972    2.5422    0.1602 C   0  0  0  0  0  0  0  0  0  0  0  0
    2.3008   -1.3148    1.2441 C   0  0  0  0  0  0  0  0  0  0  0  0
   -0.7570    3.0584    0.4440 C   0  0  0  0  0  0  0  0  0  0  0  0
    3.2658   -2.2713    1.5545 C   0  0  0  0  0  0  0  0  0  0  0  0
    4.4177   -2.3327    0.7817 C   0  0  0  0  0  0  0  0  0  0  0  0
   -2.5103   -1.2944   -1.2943 H   0  0  0  0  0  0  0  0  0  0  0  0
   -2.2454   -1.7177    0.4200 H   0  0  0  0  0  0  0  0  0  0  0  0
   -5.2477   -3.7033   -0.5899 H   0  0  0  0  0  0  0  0  0  0  0  0
   -3.6264   -3.8261    0.1268 H   0  0  0  0  0  0  0  0  0  0  0  0
   -3.8369   -3.3955   -1.5858 H   0  0  0  0  0  0  0  0  0  0  0  0
   -4.3298   -2.0349    1.9601 H   0  0  0  0  0  0  0  0  0  0  0  0
   -5.9322   -2.0944    1.2000 H   0  0  0  0  0  0  0  0  0  0  0  0
   -5.1396   -0.5511    1.4043 H   0  0  0  0  0  0  0  0  0  0  0  0
   -3.7876    0.7030    0.2465 H   0  0  0  0  0  0  0  0  0  0  0  0
   -0.4766   -0.6334   -0.4690 H   0  0  0  0  0  0  0  0  0  0  0  0
    2.5058    1.8398   -2.2439 H   0  0  0  0  0  0  0  0  0  0  0  0
   -6.0111   -1.5046   -1.1413 H   0  0  0  0  0  0  0  0  0  0  0  0
    4.5462    0.3989   -2.2014 H   0  0  0  0  0  0  0  0  0  0  0  0
    1.3791    3.1752    0.2000 H   0  0  0  0  0  0  0  0  0  0  0  0
    1.3902   -1.2411    1.8298 H   0  0  0  0  0  0  0  0  0  0  0  0
    3.1186   -2.9542    2.3843 H   0  0  0  0  0  0  0  0  0  0  0  0
    5.1806   -3.0725    1.0096 H   0  0  0  0  0  0  0  0  0  0  0  0
  1 20  1  0  0  0  0
  2  7  1  0  0  0  0
  2 34  1  0  0  0  0
  3  8  1  0  0  0  0
  3 13  1  0  0  0  0
  3 31  1  0  0  0  0
  4 16  1  0  0  0  0
  4 17  1  0  0  0  0
  4 35  1  0  0  0  0
  5 13  2  0  0  0  0
  5 20  1  0  0  0  0
  6 16  1  0  0  0  0
  6 22  2  0  0  0  0
  7  8  1  0  0  0  0
  7  9  1  0  0  0  0
  7 10  1  0  0  0  0
  8 23  1  0  0  0  0
  8 24  1  0  0  0  0
  9 25  1  0  0  0  0
  9 26  1  0  0  0  0
  9 27  1  0  0  0  0
 10 28  1  0  0  0  0
 10 29  1  0  0  0  0
 10 30  1  0  0  0  0
 11 12  1  0  0  0  0
 11 14  1  0  0  0  0
 11 17  2  0  0  0  0
 12 15  2  0  0  0  0
 12 18  1  0  0  0  0
 13 15  1  0  0  0  0
 14 16  2  0  0  0  0
 14 19  1  0  0  0  0
 15 32  1  0  0  0  0
 17 33  1  0  0  0  0
 18 20  2  0  0  0  0
 18 36  1  0  0  0  0
 19 21  2  0  0  0  0
 19 37  1  0  0  0  0
 21 22  1  0  0  0  0
 21 38  1  0  0  0  0
 22 39  1  0  0  0  0
M  END
> <PUBCHEM_COMPOUND_CID>
49830324

> <PUBCHEM_CONFORMER_RMSD>
0.6

> <PUBCHEM_CONFORMER_DIVERSEORDER>
3
124
21
118
109
82
65
78
142
128
51
19
83
132
93
32
96
13
97
131
80
90
24
122
127
106
20
81
79
99
47
95
17
134
88
100
73
141
62
123
138
111
120
125
10
136
69
2
66
129
89
135
137
30
133
117
60
130
23
27
38
140
68
42
94
77
121
71
49
116
86
7
103
101
98
107
25
6
74
126
37
4
105
70
114
115
41
63
11
113
91
58
67
92
53
104
85
15
57
43
45
102
29
55
16
139
110
8
59
31
33
39
54
50
72
108
87
112
52
5
40
22
119
14
18
64
61
26
84
48
28
1
56
12
76
46
75
35
9
36
34
44

> <PUBCHEM_MMFF94_PARTIAL_CHARGES>
28
1 -0.18
11 -0.05
12 0.05
13 0.41
15 -0.15
16 0.11
17 -0.3
18 -0.15
19 -0.15
2 -0.68
20 0.49
21 -0.15
22 0.16
3 -0.87
31 0.4
32 0.15
33 0.15
34 0.4
35 0.27
36 0.15
37 0.15
38 0.15
39 0.15
4 0.03
5 -0.62
6 -0.57
7 0.28
8 0.37

> <PUBCHEM_EFFECTIVE_ROTOR_COUNT>
4

> <PUBCHEM_PHARMACOPHORE_FEATURES>
11
1 2 acceptor
1 2 donor
1 3 donor
1 4 cation
1 4 donor
1 6 acceptor
3 3 5 13 cation
3 7 9 10 hydrophobe
5 4 11 14 16 17 rings
6 5 12 13 15 18 20 rings
6 6 14 16 19 21 22 rings

> <PUBCHEM_HEAVY_ATOM_COUNT>
22

> <PUBCHEM_ATOM_DEF_STEREO_COUNT>
0

> <PUBCHEM_ATOM_UDEF_STEREO_COUNT>
0

> <PUBCHEM_BOND_DEF_STEREO_COUNT>
0

> <PUBCHEM_BOND_UDEF_STEREO_COUNT>
0

> <PUBCHEM_ISOTOPIC_ATOM_COUNT>
0

> <PUBCHEM_COMPONENT_COUNT>
1

> <PUBCHEM_CACTVS_TAUTO_COUNT>
13

> <PUBCHEM_CONFORMER_ID>
02F859B400000003

> <PUBCHEM_MMFF94_ENERGY>
59.3714

> <PUBCHEM_FEATURE_SELFOVERLAP>
55.935

> <PUBCHEM_SHAPE_FINGERPRINT>
10616163 171 18266742372576663506
10622 236 17824526496598449706
11265709 11 18411700989192053529
114674 6 17831577948377213907
11578080 2 18042664145252481724
12293681 160 17832171650518527476
12363563 72 18341897415471171207
12403259 118 10952054424992528743
12553582 1 18341054098721956607
12788726 201 18338245885578349131
12824470 246 18260264110105288980
12969540 37 17977378666345564951
13009979 54 18263647277630395050
13140716 1 18271807899971316785
13533116 47 17979075217752837387
13583140 156 17344041011067094306
13631057 29 18410293588981652156
13955234 65 17765718310381169321
14178342 30 18122337974451423394
14251757 17 16805608113718906531
14576447 43 18187368718767872886
14767858 380 18117295837791653964
14787075 74 18265339593682721924
14844126 61 18266172829879728307
15042514 8 18268437841255811305
15099037 8 18261675870166314624
15342816 4 18340497758453997132
15537594 2 18264500636040268311
15842332 3 18044395850111262836
17134986 127 9222961403695789464
17492 89 18337957766694082494
18222031 100 17988640843821776087
19319366 153 18045506575861569814
20291156 8 18409728473768893971
20602899 9 17612850626911169077
20626108 58 17987510580238982719
20645477 70 18053943133113566095
20775438 99 17474646825980081943
20832881 197 18335702767456114587
21033648 29 16128666219426259131
21250096 35 18410570717098388671
21452121 199 18411693322433233336
22950370 63 18338807800845767075
235170 7 16226320525547367783
23598288 3 18119265977375666225
3004659 81 18113892758397502575
3091708 16 8847857514617552993
314173 41 18268155434117963327
314194 84 18264495147035023907
3421961 26 18197777906737440729
4017518 198 17114366053653996591
46194498 28 16154842434477595991
463206 1 18335421330570464691
7471813 234 18408317796319078310
7970288 3 18413106186385783047
79837 15 17693946193860525081
8863177 126 17899991722806846107
960060 61 17968371355427397359

> <PUBCHEM_SHAPE_MULTIPOLES>
428.83
10.06
4.52
1.24
4.71
4.43
0
-11.93
0.81
2.64
-1.56
-0.64
-0.27
-1.9

> <PUBCHEM_SHAPE_SELFOVERLAP>
925.254

> <PUBCHEM_SHAPE_VOLUME>
238.6

> <PUBCHEM_COORDINATE_TYPE>
2
5
10

$$$$
49830299
  -OEChem-05102415033D

 40 42  0     0  0  0  0  0  0999 V2000
    0.1526   -4.7023   -1.1119 Cl  0  0  0  0  0  0  0  0  0  0  0  0
   -5.9705    0.9071   -0.2627 S   0  0  0  0  0  0  0  0  0  0  0  0
   -6.2438   -0.3929    0.3181 O   0  0  0  0  0  0  0  0  0  0  0  0
   -6.4747    1.2528   -1.5778 O   0  0  0  0  0  0  0  0  0  0  0  0
   -2.1045   -0.5462    0.4175 N   0  0  0  0  0  0  0  0  0  0  0  0
    4.7383   -0.1107    1.2813 N   0  0  0  0  0  0  0  0  0  0  0  0
   -4.2950    1.2159   -0.2340 N   0  0  0  0  0  0  0  0  0  0  0  0
   -0.9322   -2.4927   -0.2988 N   0  0  0  0  0  0  0  0  0  0  0  0
    5.3405    1.9292    0.1500 N   0  0  0  0  0  0  0  0  0  0  0  0
    2.7367   -0.5045    0.3928 C   0  0  0  0  0  0  0  0  0  0  0  0
    3.2489    0.6912   -0.1767 C   0  0  0  0  0  0  0  0  0  0  0  0
    1.4923   -1.1784    0.1574 C   0  0  0  0  0  0  0  0  0  0  0  0
   -2.1541    0.7940    0.9036 C   0  0  0  0  0  0  0  0  0  0  0  0
   -3.5942    1.2534    1.0698 C   0  0  0  0  0  0  0  0  0  0  0  0
    4.4977    0.9086    0.3981 C   0  0  0  0  0  0  0  0  0  0  0  0
    3.6748   -0.9757    1.2857 C   0  0  0  0  0  0  0  0  0  0  0  0
   -0.8857   -1.2227    0.1621 C   0  0  0  0  0  0  0  0  0  0  0  0
    0.2884   -0.5278    0.4042 C   0  0  0  0  0  0  0  0  0  0  0  0
    1.4854   -2.4854   -0.3174 C   0  0  0  0  0  0  0  0  0  0  0  0
    2.8008    1.6281   -1.1221 C   0  0  0  0  0  0  0  0  0  0  0  0
    0.2577   -3.0926   -0.5273 C   0  0  0  0  0  0  0  0  0  0  0  0
    3.6347    2.7052   -1.4168 C   0  0  0  0  0  0  0  0  0  0  0  0
   -6.5524    2.1466    0.8718 C   0  0  0  0  0  0  0  0  0  0  0  0
    4.8581    2.7998   -0.7671 C   0  0  0  0  0  0  0  0  0  0  0  0
   -1.6531    1.4760    0.2050 H   0  0  0  0  0  0  0  0  0  0  0  0
   -1.6607    0.8719    1.8799 H   0  0  0  0  0  0  0  0  0  0  0  0
   -4.1015    0.6003    1.7886 H   0  0  0  0  0  0  0  0  0  0  0  0
   -3.6154    2.2786    1.4537 H   0  0  0  0  0  0  0  0  0  0  0  0
    3.6869   -1.8456    1.9288 H   0  0  0  0  0  0  0  0  0  0  0  0
    0.3106    0.4895    0.7796 H   0  0  0  0  0  0  0  0  0  0  0  0
   -2.9565   -1.0638    0.2346 H   0  0  0  0  0  0  0  0  0  0  0  0
    5.5724   -0.2090    1.8432 H   0  0  0  0  0  0  0  0  0  0  0  0
   -3.9456    1.9140   -0.9038 H   0  0  0  0  0  0  0  0  0  0  0  0
    2.4095   -3.0178   -0.5236 H   0  0  0  0  0  0  0  0  0  0  0  0
    1.8389    1.5257   -1.6140 H   0  0  0  0  0  0  0  0  0  0  0  0
    3.3325    3.4548   -2.1403 H   0  0  0  0  0  0  0  0  0  0  0  0
   -7.6446    2.1153    0.8668 H   0  0  0  0  0  0  0  0  0  0  0  0
   -6.1891    1.9274    1.8767 H   0  0  0  0  0  0  0  0  0  0  0  0
   -6.2139    3.1273    0.5323 H   0  0  0  0  0  0  0  0  0  0  0  0
    5.5207    3.6332   -0.9848 H   0  0  0  0  0  0  0  0  0  0  0  0
  1 21  1  0  0  0  0
  2  3  2  0  0  0  0
  2  4  2  0  0  0  0
  2  7  1  0  0  0  0
  2 23  1  0  0  0  0
  5 13  1  0  0  0  0
  5 17  1  0  0  0  0
  5 31  1  0  0  0  0
  6 15  1  0  0  0  0
  6 16  1  0  0  0  0
  6 32  1  0  0  0  0
  7 14  1  0  0  0  0
  7 33  1  0  0  0  0
  8 17  2  0  0  0  0
  8 21  1  0  0  0  0
  9 15  1  0  0  0  0
  9 24  2  0  0  0  0
 10 11  1  0  0  0  0
 10 12  1  0  0  0  0
 10 16  2  0  0  0  0
 11 15  2  0  0  0  0
 11 20  1  0  0  0  0
 12 18  2  0  0  0  0
 12 19  1  0  0  0  0
 13 14  1  0  0  0  0
 13 25  1  0  0  0  0
 13 26  1  0  0  0  0
 14 27  1  0  0  0  0
 14 28  1  0  0  0  0
 16 29  1  0  0  0  0
 17 18  1  0  0  0  0
 18 30  1  0  0  0  0
 19 21  2  0  0  0  0
 19 34  1  0  0  0  0
 20 22  2  0  0  0  0
 20 35  1  0  0  0  0
 22 24  1  0  0  0  0
 22 36  1  0  0  0  0
 23 37  1  0  0  0  0
 23 38  1  0  0  0  0
 23 39  1  0  0  0  0
 24 40  1  0  0  0  0
M  END
> <PUBCHEM_COMPOUND_CID>
49830299

> <PUBCHEM_CONFORMER_RMSD>
1

> <PUBCHEM_CONFORMER_DIVERSEORDER>
3
13
127
28
18
95
37
111
82
144
49
29
12
104
76
94
36
23
9
35
25
65
124
58
60
116
33
61
56
48
145
31
84
115
86
6
72
123
109
53
34
148
156
129
62
140
45
46
112
73
119
15
85
117
50
38
151
92
80
138
118
5
17
108
70
149
47
142
97
71
146
67
154
89
19
91
78
90
10
42
77
141
24
125
160
14
41
107
126
8
20
136
66
30
54
135
158
79
11
32
27
101
43
155
93
147
98
99
21
39
64
110
130
122
51
68
139
16
40
69
102
59
26
87
120
100
4
121
81
157
132
55
2
105
63
52
57
143
88
150
7
1
113
153
137
106
83
152
96
131
22
114
128
74
75
134
44
103
159
133

> <PUBCHEM_MMFF94_PARTIAL_CHARGES>
32
1 -0.18
10 -0.05
12 0.05
13 0.37
14 0.36
15 0.11
16 -0.3
17 0.41
18 -0.15
19 -0.15
2 1.33
20 -0.15
21 0.49
22 -0.15
23 0.11
24 0.16
29 0.15
3 -0.65
30 0.15
31 0.4
32 0.27
33 0.42
34 0.15
35 0.15
36 0.15
4 -0.65
40 0.15
5 -0.87
6 0.03
7 -0.91
8 -0.62
9 -0.57

> <PUBCHEM_EFFECTIVE_ROTOR_COUNT>
6

> <PUBCHEM_PHARMACOPHORE_FEATURES>
11
1 3 acceptor
1 4 acceptor
1 5 donor
1 6 cation
1 6 donor
1 7 donor
1 9 acceptor
3 5 8 17 cation
5 6 10 11 15 16 rings
6 8 12 17 18 19 21 rings
6 9 11 15 20 22 24 rings

> <PUBCHEM_HEAVY_ATOM_COUNT>
24

> <PUBCHEM_ATOM_DEF_STEREO_COUNT>
0

> <PUBCHEM_ATOM_UDEF_STEREO_COUNT>
0

> <PUBCHEM_BOND_DEF_STEREO_COUNT>
0

> <PUBCHEM_BOND_UDEF_STEREO_COUNT>
0

> <PUBCHEM_ISOTOPIC_ATOM_COUNT>
0

> <PUBCHEM_COMPONENT_COUNT>
1

> <PUBCHEM_CACTVS_TAUTO_COUNT>
13

> <PUBCHEM_CONFORMER_ID>
02F8599B00000003

> <PUBCHEM_MMFF94_ENERGY>
52.3671

> <PUBCHEM_FEATURE_SELFOVERLAP>
55.953

> <PUBCHEM_SHAPE_FINGERPRINT>
10090160 65 18339356371332902131
10411042 1 17618225005551821690
10763959 59 18115028485368515996
12107183 9 18336255783319258314
12403259 118 18188770677190971770
12422481 6 17530681013795631669
12516196 113 8502651502206827061
12633257 1 15141244420302401668
12760667 363 9511469909398064001
12788726 201 17978784937349657402
13540713 5 18117546552497439578
14251764 38 18043247951334853597
14294032 229 18127983103287509771
14767858 380 18201428208496359165
14774955 27 18408042909732697789
14790565 3 18340770463397600103
15342168 16 18409450292952763999
17810953 82 18335424556164431884
17980427 23 17895761806810639415
19319366 153 18201428148071911735
19427546 62 18410859815863933667
20157964 124 18334011658152967225
20715895 44 18335416812364738425
22149856 69 18129958801935375811
23559900 14 18265904549248934811
23569917 315 18343866597594819902
245318 6 17896622741089200981
2838139 119 18186794764870927381
328310 1195 18042390345297452341
33382 64 11959730490635412397
335352 9 18411140217530901958
3472631 163 18340774857244518508
474 4 18410013204241170379
6058803 2 17973432498250894618
6327066 14 18337673121825551932

> <PUBCHEM_SHAPE_MULTIPOLES>
462.98
14.78
4.21
1.21
23.48
4.56
-0.12
-15.5
0.03
-2.23
-2.04
-0.18
-0.28
-1.47

> <PUBCHEM_SHAPE_SELFOVERLAP>
976.87

> <PUBCHEM_SHAPE_VOLUME>
264.5

> <PUBCHEM_COORDINATE_TYPE>
2
5
10

$$$$
49830337
  -OEChem-05102415033D

 40 42  0     0  0  0  0  0  0999 V2000
   -0.6798   -5.0720    0.6980 Cl  0  0  0  0  0  0  0  0  0  0  0  0
    2.2520    1.0214   -0.3431 O   0  0  0  0  0  0  0  0  0  0  0  0
   -3.9717    0.5632   -1.5983 N   0  0  0  0  0  0  0  0  0  0  0  0
    2.4575   -1.2592    0.1761 N   0  0  0  0  0  0  0  0  0  0  0  0
   -4.4145    2.5192   -0.2635 N   0  0  0  0  0  0  0  0  0  0  0  0
    0.8758   -3.0198    0.4037 N   0  0  0  0  0  0  0  0  0  0  0  0
   -2.2439   -0.3081   -0.4999 C   0  0  0  0  0  0  0  0  0  0  0  0
    5.0302    1.4726   -0.1993 C   0  0  0  0  0  0  0  0  0  0  0  0
   -2.6421    0.8803    0.1678 C   0  0  0  0  0  0  0  0  0  0  0  0
    4.4393    0.0849    0.0474 C   0  0  0  0  0  0  0  0  0  0  0  0
   -1.1853   -1.2281   -0.1933 C   0  0  0  0  0  0  0  0  0  0  0  0
    6.5558    1.4862   -0.0766 C   0  0  0  0  0  0  0  0  0  0  0  0
   -3.7213    1.3989   -0.5419 C   0  0  0  0  0  0  0  0  0  0  0  0
   -3.0801   -0.4778   -1.5823 C   0  0  0  0  0  0  0  0  0  0  0  0
    0.1335   -0.7885   -0.1581 C   0  0  0  0  0  0  0  0  0  0  0  0
    2.9201    0.0325   -0.0604 C   0  0  0  0  0  0  0  0  0  0  0  0
    1.1183   -1.7156    0.1426 C   0  0  0  0  0  0  0  0  0  0  0  0
   -2.2142    1.5889    1.3023 C   0  0  0  0  0  0  0  0  0  0  0  0
   -1.4747   -2.5625    0.0698 C   0  0  0  0  0  0  0  0  0  0  0  0
    7.1198    2.8764   -0.3257 C   0  0  0  0  0  0  0  0  0  0  0  0
   -0.4178   -3.4102    0.3605 C   0  0  0  0  0  0  0  0  0  0  0  0
   -2.8975    2.7567    1.6362 C   0  0  0  0  0  0  0  0  0  0  0  0
   -3.9594    3.1605    0.8381 C   0  0  0  0  0  0  0  0  0  0  0  0
    4.7394    1.8195   -1.1988 H   0  0  0  0  0  0  0  0  0  0  0  0
    4.5983    2.1842    0.5156 H   0  0  0  0  0  0  0  0  0  0  0  0
    4.7192   -0.2600    1.0504 H   0  0  0  0  0  0  0  0  0  0  0  0
    4.8550   -0.6254   -0.6778 H   0  0  0  0  0  0  0  0  0  0  0  0
    6.9925    0.7848   -0.7969 H   0  0  0  0  0  0  0  0  0  0  0  0
    6.8509    1.1508    0.9243 H   0  0  0  0  0  0  0  0  0  0  0  0
   -3.1250   -1.2412   -2.3475 H   0  0  0  0  0  0  0  0  0  0  0  0
   -4.7022    0.6951   -2.2840 H   0  0  0  0  0  0  0  0  0  0  0  0
    0.3011    0.2536   -0.3760 H   0  0  0  0  0  0  0  0  0  0  0  0
   -1.3806    1.2465    1.9069 H   0  0  0  0  0  0  0  0  0  0  0  0
    3.1388   -1.9806    0.3996 H   0  0  0  0  0  0  0  0  0  0  0  0
   -2.4952   -2.9343    0.0542 H   0  0  0  0  0  0  0  0  0  0  0  0
    6.7251    3.5956    0.3990 H   0  0  0  0  0  0  0  0  0  0  0  0
    6.8675    3.2277   -1.3314 H   0  0  0  0  0  0  0  0  0  0  0  0
    8.2103    2.8648   -0.2336 H   0  0  0  0  0  0  0  0  0  0  0  0
   -2.6042    3.3383    2.5036 H   0  0  0  0  0  0  0  0  0  0  0  0
   -4.5034    4.0688    1.0839 H   0  0  0  0  0  0  0  0  0  0  0  0
  1 21  1  0  0  0  0
  2 16  2  0  0  0  0
  3 13  1  0  0  0  0
  3 14  1  0  0  0  0
  3 31  1  0  0  0  0
  4 16  1  0  0  0  0
  4 17  1  0  0  0  0
  4 34  1  0  0  0  0
  5 13  1  0  0  0  0
  5 23  2  0  0  0  0
  6 17  2  0  0  0  0
  6 21  1  0  0  0  0
  7  9  1  0  0  0  0
  7 11  1  0  0  0  0
  7 14  2  0  0  0  0
  8 10  1  0  0  0  0
  8 12  1  0  0  0  0
  8 24  1  0  0  0  0
  8 25  1  0  0  0  0
  9 13  2  0  0  0  0
  9 18  1  0  0  0  0
 10 16  1  0  0  0  0
 10 26  1  0  0  0  0
 10 27  1  0  0  0  0
 11 15  2  0  0  0  0
 11 19  1  0  0  0  0
 12 20  1  0  0  0  0
 12 28  1  0  0  0  0
 12 29  1  0  0  0  0
 14 30  1  0  0  0  0
 15 17  1  0  0  0  0
 15 32  1  0  0  0  0
 18 22  2  0  0  0  0
 18 33  1  0  0  0  0
 19 21  2  0  0  0  0
 19 35  1  0  0  0  0
 20 36  1  0  0  0  0
 20 37  1  0  0  0  0
 20 38  1  0  0  0  0
 22 23  1  0  0  0  0
 22 39  1  0  0  0  0
 23 40  1  0  0  0  0
M  END
> <PUBCHEM_COMPOUND_CID>
49830337

> <PUBCHEM_CONFORMER_RMSD>
0.8

> <PUBCHEM_CONFORMER_DIVERSEORDER>
1
28
15
32
9
27
23
24
16
10
14
8
29
30
11
18
4
25
21
13
26
7
12
17
20
31
33
3
2
34
5
22
19
6

> <PUBCHEM_MMFF94_PARTIAL_CHARGES>
27
1 -0.18
10 0.06
11 0.05
13 0.11
14 -0.3
15 -0.15
16 0.57
17 0.43
18 -0.15
19 -0.15
2 -0.57
21 0.49
22 -0.15
23 0.16
3 0.03
30 0.15
31 0.27
32 0.15
33 0.15
34 0.37
35 0.15
39 0.15
4 -0.55
40 0.15
5 -0.57
6 -0.62
7 -0.05

> <PUBCHEM_EFFECTIVE_ROTOR_COUNT>
6

> <PUBCHEM_PHARMACOPHORE_FEATURES>
9
1 2 acceptor
1 20 hydrophobe
1 3 cation
1 3 donor
1 4 donor
1 5 acceptor
5 3 7 9 13 14 rings
6 5 9 13 18 22 23 rings
6 6 11 15 17 19 21 rings

> <PUBCHEM_HEAVY_ATOM_COUNT>
23

> <PUBCHEM_ATOM_DEF_STEREO_COUNT>
0

> <PUBCHEM_ATOM_UDEF_STEREO_COUNT>
0

> <PUBCHEM_BOND_DEF_STEREO_COUNT>
0

> <PUBCHEM_BOND_UDEF_STEREO_COUNT>
0

> <PUBCHEM_ISOTOPIC_ATOM_COUNT>
0

> <PUBCHEM_COMPONENT_COUNT>
1

> <PUBCHEM_CACTVS_TAUTO_COUNT>
18

> <PUBCHEM_CONFORMER_ID>
02F859C100000001

> <PUBCHEM_MMFF94_ENERGY>
49.4841

> <PUBCHEM_FEATURE_SELFOVERLAP>
45.783

> <PUBCHEM_SHAPE_FINGERPRINT>
10291535 26 18270121352381620400
10411042 1 17472420327676091858
10871710 139 18271524213255227409
10937287 8 18338801117554725842
11049842 53 15765275234091439471
11135609 187 18335409150554610837
11135609 201 18342183266945782009
11640471 11 17913768323949273963
12107183 9 18261660499433404874
12293681 160 18060700559299462928
12390115 104 18337684069791712558
12788726 201 18266445697568800259
13140716 1 18190182291113028003
14251764 75 17985280568441638465
14508225 48 17550377883696675479
14713325 29 18267313212585584842
14739800 52 18128229334337142256
14767858 380 18269253782242061023
14787075 74 18412820301268170399
14790565 3 18265899064627802028
14849402 71 18121503445215950154
14931854 50 18201992214347701277
14950920 106 13262395575088318652
15342168 16 18263929839175906941
15513586 35 16809849054753503268
16087824 20 18265894851909599847
1813 80 16828966890485932231
19784866 34 18338235959834977505
20238998 120 17762341718446497915
20715895 44 16255034980777704057
20739085 24 17970919851618293742
21304253 13 17762348311421868043
21756936 100 18342461460540954618
2255824 54 17907574727584909543
22956985 138 16029299346314848346
23522609 53 17485647058281212977
23845131 108 18261962838897113155
283562 15 18336262457250679627
38570 142 18055655939726536828
394222 165 18123183511667653531
4258327 124 17459476730758717948
4409770 3 18192147311760382907
474 4 18193835942782438947
5104073 3 17968088751454251082
531348 171 17775008994725783654
57634706 229 18269578124913150648
6034566 193 18260844712300911900
6058803 2 17840291234973104783
6299153 45 18337102364454490944
6327066 14 18261101980873376652
633830 44 18270117881605330158
7288768 16 18187653487351263371
77188 2 17256249770006947827
7808743 9 18409447024989287712
9981440 41 18408881815524574531

> <PUBCHEM_SHAPE_MULTIPOLES>
449.41
12.17
5.22
1.11
27.15
5.24
0.04
-16.59
1.92
-2.92
-2.06
-1.41
-0.43
-1.19

> <PUBCHEM_SHAPE_SELFOVERLAP>
962.3

> <PUBCHEM_SHAPE_VOLUME>
250.2

> <PUBCHEM_COORDINATE_TYPE>
2
5
10

$$$$
