25165861
  -OEChem-05102415013D

 34 37  0     0  0  0  0  0  0999 V2000
   -1.6392   -0.9776   -0.7878 N   0  0  0  0  0  0  0  0  0  0  0  0
    5.7201    0.5167    0.3502 N   0  0  0  0  0  0  0  0  0  0  0  0
   -0.2396   -1.9517    0.5236 N   0  0  0  0  0  0  0  0  0  0  0  0
   -1.5081   -1.9502    0.1288 N   0  0  0  0  0  0  0  0  0  0  0  0
    5.7179    1.8319    0.0762 N   0  0  0  0  0  0  0  0  0  0  0  0
    1.8092   -0.6518   -0.0118 C   0  0  0  0  0  0  0  0  0  0  0  0
   -2.9122   -0.7232   -1.4127 C   0  0  0  0  0  0  0  0  0  0  0  0
    0.4148   -0.9657   -0.1612 C   0  0  0  0  0  0  0  0  0  0  0  0
    3.6111    0.9497   -0.0663 C   0  0  0  0  0  0  0  0  0  0  0  0
    4.4865   -0.0728    0.2820 C   0  0  0  0  0  0  0  0  0  0  0  0
    2.2442    0.6633   -0.2183 C   0  0  0  0  0  0  0  0  0  0  0  0
   -0.4616   -0.3308   -1.0051 C   0  0  0  0  0  0  0  0  0  0  0  0
   -3.8639    0.0527   -0.5363 C   0  0  0  0  0  0  0  0  0  0  0  0
    2.7100   -1.6596    0.3374 C   0  0  0  0  0  0  0  0  0  0  0  0
    4.0738   -1.3902    0.4925 C   0  0  0  0  0  0  0  0  0  0  0  0
    4.4332    2.0917   -0.1768 C   0  0  0  0  0  0  0  0  0  0  0  0
   -4.5483   -0.5937    0.4932 C   0  0  0  0  0  0  0  0  0  0  0  0
   -4.0589    1.4166   -0.7544 C   0  0  0  0  0  0  0  0  0  0  0  0
   -5.4278    0.1236    1.3041 C   0  0  0  0  0  0  0  0  0  0  0  0
   -4.9384    2.1338    0.0567 C   0  0  0  0  0  0  0  0  0  0  0  0
   -5.6227    1.4873    1.0859 C   0  0  0  0  0  0  0  0  0  0  0  0
   -3.3513   -1.6904   -1.6873 H   0  0  0  0  0  0  0  0  0  0  0  0
   -2.7269   -0.1904   -2.3533 H   0  0  0  0  0  0  0  0  0  0  0  0
    1.5597    1.4651   -0.4798 H   0  0  0  0  0  0  0  0  0  0  0  0
   -0.3642    0.4812   -1.7127 H   0  0  0  0  0  0  0  0  0  0  0  0
    2.3694   -2.6815    0.4935 H   0  0  0  0  0  0  0  0  0  0  0  0
    4.7752   -2.1716    0.7627 H   0  0  0  0  0  0  0  0  0  0  0  0
    4.1475    3.1025   -0.4314 H   0  0  0  0  0  0  0  0  0  0  0  0
    6.6033    0.0776    0.5784 H   0  0  0  0  0  0  0  0  0  0  0  0
   -4.4104   -1.6567    0.6716 H   0  0  0  0  0  0  0  0  0  0  0  0
   -3.5304    1.9329   -1.5513 H   0  0  0  0  0  0  0  0  0  0  0  0
   -5.9616   -0.3800    2.1047 H   0  0  0  0  0  0  0  0  0  0  0  0
   -5.0899    3.1959   -0.1127 H   0  0  0  0  0  0  0  0  0  0  0  0
   -6.3075    2.0458    1.7173 H   0  0  0  0  0  0  0  0  0  0  0  0
  1  4  1  0  0  0  0
  1  7  1  0  0  0  0
  1 12  1  0  0  0  0
  2  5  1  0  0  0  0
  2 10  1  0  0  0  0
  2 29  1  0  0  0  0
  3  4  2  0  0  0  0
  3  8  1  0  0  0  0
  5 16  2  0  0  0  0
  6  8  1  0  0  0  0
  6 11  2  0  0  0  0
  6 14  1  0  0  0  0
  7 13  1  0  0  0  0
  7 22  1  0  0  0  0
  7 23  1  0  0  0  0
  8 12  2  0  0  0  0
  9 10  2  0  0  0  0
  9 11  1  0  0  0  0
  9 16  1  0  0  0  0
 10 15  1  0  0  0  0
 11 24  1  0  0  0  0
 12 25  1  0  0  0  0
 13 17  2  0  0  0  0
 13 18  1  0  0  0  0
 14 15  2  0  0  0  0
 14 26  1  0  0  0  0
 15 27  1  0  0  0  0
 16 28  1  0  0  0  0
 17 19  1  0  0  0  0
 17 30  1  0  0  0  0
 18 20  2  0  0  0  0
 18 31  1  0  0  0  0
 19 21  2  0  0  0  0
 19 32  1  0  0  0  0
 20 21  1  0  0  0  0
 20 33  1  0  0  0  0
 21 34  1  0  0  0  0
M  END
> <PUBCHEM_COMPOUND_CID>
25165861

> <PUBCHEM_CONFORMER_RMSD>
0.6

> <PUBCHEM_CONFORMER_DIVERSEORDER>
1
32
11
50
46
49
40
28
4
33
51
23
37
38
19
17
42
3
21
36
26
10
29
12
47
34
43
16
14
48
41
24
7
20
18
25
5
15
13
9
45
44
27
35
30
2
31
8
22
6
39

> <PUBCHEM_MMFF94_PARTIAL_CHARGES>
31
1 0.31
10 -0.15
11 -0.15
12 -0.3
13 -0.14
14 -0.15
15 -0.15
16 0.14
17 -0.15
18 -0.15
19 -0.15
2 0.3
20 -0.15
21 -0.15
24 0.15
25 0.15
26 0.15
27 0.15
28 0.15
29 0.27
3 -0.23
30 0.15
31 0.15
32 0.15
33 0.15
34 0.15
4 -0.42
5 -0.71
6 0.05
7 0.4
8 0.17

> <PUBCHEM_EFFECTIVE_ROTOR_COUNT>
3

> <PUBCHEM_PHARMACOPHORE_FEATURES>
6
1 2 donor
1 5 acceptor
5 1 3 4 8 12 rings
5 2 5 9 10 16 rings
6 13 17 18 19 20 21 rings
6 6 9 10 11 14 15 rings

> <PUBCHEM_HEAVY_ATOM_COUNT>
21

> <PUBCHEM_ATOM_DEF_STEREO_COUNT>
0

> <PUBCHEM_ATOM_UDEF_STEREO_COUNT>
0

> <PUBCHEM_BOND_DEF_STEREO_COUNT>
0

> <PUBCHEM_BOND_UDEF_STEREO_COUNT>
0

> <PUBCHEM_ISOTOPIC_ATOM_COUNT>
0

> <PUBCHEM_COMPONENT_COUNT>
1

> <PUBCHEM_CACTVS_TAUTO_COUNT>
2

> <PUBCHEM_CONFORMER_ID>
0180002500000001

> <PUBCHEM_MMFF94_ENERGY>
41.7721

> <PUBCHEM_FEATURE_SELFOVERLAP>
30.539

> <PUBCHEM_SHAPE_FINGERPRINT>
10 15 17894914044179189121
105312 117 16559030502144199469
10912923 1 18341600534209847663
11046707 91 11097855185937075831
11089746 13 17632286904803706200
11370993 144 18114182965570012907
11796584 16 11241963768210786081
12107183 9 18122618349542142059
12236239 1 18202844361755105330
12403259 415 18040714714850211343
12555020 224 10735877274844504141
12596602 18 18040999527348931073
12670543 26 12751246886836810995
12788726 201 17561090159223849304
12839892 36 13045935802700886985
12892183 10 17822011965492959111
13167372 99 18342175540552843056
13398642 44 17171537780897231356
13675066 3 17822291258299346591
13785724 45 17835801894348091530
14251764 75 17826808228566871460
14341114 176 18260272910720105753
14848178 5 10737283558626905393
15081414 286 18333448738428172700
15163728 17 17489319555185047565
15183329 4 16702311126455654756
15188451 53 15792022220574073867
15475509 35 16009583561151175058
1601671 61 17847059982587103296
16760501 71 18262242225939546733
17349148 13 11602825657505122593
17844677 252 18338520733510264287
17857418 61 8790890683173416508
17870717 6 12679458682349552469
17959699 21 18342736351507068856
18222031 100 11674879987431501442
18785283 64 16951422085666488276
193927 3 11169912745325192977
20281389 69 18272930531138534505
21033648 29 17823115926427565341
21315759 148 17822583737108818563
21421861 104 17968642827889226722
21637258 2 12468641664028777115
21756936 100 18341890826965127687
22061861 79 11167940251503392737
22224240 67 18113059338086011515
22393880 68 11959724933280099509
23402655 69 18201996646980160694
23559900 14 17417533506149665638
2838139 119 17703784804078102697
2916195 48 18411416232680935161
312425 54 17023190379777209993
465052 167 11169919368122507208
5104073 3 18115015420526472882
5283173 99 11887682740794772963
542803 24 18202562890820109006
543358 83 18412541007870822538
5718773 13 12613336308103352329
57724786 102 17770790018307029249
59682541 52 14548183065354659637
602551 16 15430045369573214818
633830 44 18340762654852138167
636775 72 18054784251104620496
76465 3 8358260345233911767
8272917 22 18272089371064406454
90127 26 18337117782495961675
960060 61 12391510901633378210
9996256 80 18342174501197384407

> <PUBCHEM_SHAPE_MULTIPOLES>
407.27
14.99
2.15
1.02
1.11
0.41
0.05
8.54
-3.68
-0.59
-0.13
1.23
-0.05
-0.6

> <PUBCHEM_SHAPE_SELFOVERLAP>
912.114

> <PUBCHEM_SHAPE_VOLUME>
217.9

> <PUBCHEM_COORDINATE_TYPE>
2
5
10

$$$$
25166059
  -OEChem-05102415013D

 34 37  0     0  0  0  0  0  0999 V2000
   -2.6128   -2.4599   -0.3316 Cl  0  0  0  0  0  0  0  0  0  0  0  0
   -1.4621    0.7314   -0.8465 N   0  0  0  0  0  0  0  0  0  0  0  0
    5.9650   -0.2481    0.4027 N   0  0  0  0  0  0  0  0  0  0  0  0
   -0.1624    1.7739    0.5141 N   0  0  0  0  0  0  0  0  0  0  0  0
   -1.4198    1.6892    0.0938 N   0  0  0  0  0  0  0  0  0  0  0  0
    6.0644   -1.5530    0.0988 N   0  0  0  0  0  0  0  0  0  0  0  0
    1.9858    0.6397   -0.0081 C   0  0  0  0  0  0  0  0  0  0  0  0
   -2.7015    0.3987   -1.5015 C   0  0  0  0  0  0  0  0  0  0  0  0
    0.5752    0.8548   -0.1791 C   0  0  0  0  0  0  0  0  0  0  0  0
    3.9013   -0.8240   -0.0640 C   0  0  0  0  0  0  0  0  0  0  0  0
    4.6929    0.2510    0.3242 C   0  0  0  0  0  0  0  0  0  0  0  0
    2.5198   -0.6348   -0.2358 C   0  0  0  0  0  0  0  0  0  0  0  0
   -0.2365    0.1775   -1.0541 C   0  0  0  0  0  0  0  0  0  0  0  0
   -3.7922   -0.0120   -0.5434 C   0  0  0  0  0  0  0  0  0  0  0  0
    2.8037    1.7020    0.3811 C   0  0  0  0  0  0  0  0  0  0  0  0
    4.1806    1.5294    0.5562 C   0  0  0  0  0  0  0  0  0  0  0  0
    4.8069   -1.8999   -0.1845 C   0  0  0  0  0  0  0  0  0  0  0  0
   -3.8239   -1.2840    0.0283 C   0  0  0  0  0  0  0  0  0  0  0  0
   -4.7851    0.9172   -0.2327 C   0  0  0  0  0  0  0  0  0  0  0  0
   -4.8485   -1.6265    0.9110 C   0  0  0  0  0  0  0  0  0  0  0  0
   -5.8097    0.5745    0.6497 C   0  0  0  0  0  0  0  0  0  0  0  0
   -5.8413   -0.6973    1.2214 C   0  0  0  0  0  0  0  0  0  0  0  0
   -2.5155   -0.3851   -2.2447 H   0  0  0  0  0  0  0  0  0  0  0  0
   -2.9989    1.2866   -2.0742 H   0  0  0  0  0  0  0  0  0  0  0  0
    1.9009   -1.4779   -0.5287 H   0  0  0  0  0  0  0  0  0  0  0  0
   -0.0653   -0.6069   -1.7785 H   0  0  0  0  0  0  0  0  0  0  0  0
    2.3862    2.6923    0.5535 H   0  0  0  0  0  0  0  0  0  0  0  0
    4.8178    2.3533    0.8575 H   0  0  0  0  0  0  0  0  0  0  0  0
    4.6008   -2.9226   -0.4675 H   0  0  0  0  0  0  0  0  0  0  0  0
    6.8095    0.2487    0.6575 H   0  0  0  0  0  0  0  0  0  0  0  0
   -4.7744    1.9132   -0.6676 H   0  0  0  0  0  0  0  0  0  0  0  0
   -4.8875   -2.6132    1.3653 H   0  0  0  0  0  0  0  0  0  0  0  0
   -6.5824    1.2981    0.8921 H   0  0  0  0  0  0  0  0  0  0  0  0
   -6.6390   -0.9638    1.9086 H   0  0  0  0  0  0  0  0  0  0  0  0
  1 18  1  0  0  0  0
  2  5  1  0  0  0  0
  2  8  1  0  0  0  0
  2 13  1  0  0  0  0
  3  6  1  0  0  0  0
  3 11  1  0  0  0  0
  3 30  1  0  0  0  0
  4  5  2  0  0  0  0
  4  9  1  0  0  0  0
  6 17  2  0  0  0  0
  7  9  1  0  0  0  0
  7 12  2  0  0  0  0
  7 15  1  0  0  0  0
  8 14  1  0  0  0  0
  8 23  1  0  0  0  0
  8 24  1  0  0  0  0
  9 13  2  0  0  0  0
 10 11  2  0  0  0  0
 10 12  1  0  0  0  0
 10 17  1  0  0  0  0
 11 16  1  0  0  0  0
 12 25  1  0  0  0  0
 13 26  1  0  0  0  0
 14 18  1  0  0  0  0
 14 19  2  0  0  0  0
 15 16  2  0  0  0  0
 15 27  1  0  0  0  0
 16 28  1  0  0  0  0
 17 29  1  0  0  0  0
 18 20  2  0  0  0  0
 19 21  1  0  0  0  0
 19 31  1  0  0  0  0
 20 22  1  0  0  0  0
 20 32  1  0  0  0  0
 21 22  2  0  0  0  0
 21 33  1  0  0  0  0
 22 34  1  0  0  0  0
M  END
> <PUBCHEM_COMPOUND_CID>
25166059

> <PUBCHEM_CONFORMER_RMSD>
0.6

> <PUBCHEM_CONFORMER_DIVERSEORDER>
1
67
23
94
5
62
83
82
79
70
46
7
100
71
99
72
8
76
36
77
81
35
61
15
55
39
11
95
66
30
45
19
54
40
58
48
2
60
44
57
64
37
85
56
91
6
21
73
80
97
22
31
25
29
14
89
50
38
43
49
53
74
41
93
87
24
34
32
75
96
18
92
33
52
68
3
84
63
98
9
69
28
16
51
27
10
86
13
42
47
26
17
59
12
90
20
4
78
88
65

> <PUBCHEM_MMFF94_PARTIAL_CHARGES>
31
1 -0.18
11 -0.15
12 -0.15
13 -0.3
14 -0.14
15 -0.15
16 -0.15
17 0.14
18 0.18
19 -0.15
2 0.31
20 -0.15
21 -0.15
22 -0.15
25 0.15
26 0.15
27 0.15
28 0.15
29 0.15
3 0.3
30 0.27
31 0.15
32 0.15
33 0.15
34 0.15
4 -0.23
5 -0.42
6 -0.71
7 0.05
8 0.4
9 0.17

> <PUBCHEM_EFFECTIVE_ROTOR_COUNT>
3

> <PUBCHEM_PHARMACOPHORE_FEATURES>
6
1 3 donor
1 6 acceptor
5 2 4 5 9 13 rings
5 3 6 10 11 17 rings
6 14 18 19 20 21 22 rings
6 7 10 11 12 15 16 rings

> <PUBCHEM_HEAVY_ATOM_COUNT>
22

> <PUBCHEM_ATOM_DEF_STEREO_COUNT>
0

> <PUBCHEM_ATOM_UDEF_STEREO_COUNT>
0

> <PUBCHEM_BOND_DEF_STEREO_COUNT>
0

> <PUBCHEM_BOND_UDEF_STEREO_COUNT>
0

> <PUBCHEM_ISOTOPIC_ATOM_COUNT>
0

> <PUBCHEM_COMPONENT_COUNT>
1

> <PUBCHEM_CACTVS_TAUTO_COUNT>
2

> <PUBCHEM_CONFORMER_ID>
018000EB00000001

> <PUBCHEM_MMFF94_ENERGY>
44.3326

> <PUBCHEM_FEATURE_SELFOVERLAP>
30.539

> <PUBCHEM_SHAPE_FINGERPRINT>
10014705 185 9583511031919842244
11045977 3 18411697703383816473
11089746 13 14836115555121460049
11128504 68 15357702997823781350
11370993 144 18412826919295431969
11405975 8 18272367619855441577
11552529 35 17557980925224727391
12236239 1 17131828785378546924
12507557 5 13470684871758086691
12596602 18 15984813882995776054
12616971 3 17846774130891148756
12633257 1 16272205314368453985
12670546 177 12468636140479372929
12788726 201 17346049916909747104
13103583 49 17917159385313345715
13288520 33 17603587426678576597
13402501 40 18335141985702217395
13551218 46 18409451405882647431
13668630 136 14634870829614467282
13685833 64 18334018306704416843
13955234 65 18340761659205754448
14251751 18 18187366527785789486
14251757 5 13768509616191020177
14251764 18 17917711331686901693
14341114 176 18413389834889303348
14350574 20 18259985964086922356
14420673 8 18408327661817356915
14466204 15 16486981656959934713
14617045 38 18187086130735522523
15142383 8 18131068186659152224
15196674 1 18411135878643443335
15348495 7 18271523203589026169
15475509 84 17632583716929822928
16110190 28 18411703230996326463
17780758 139 18343303669684641579
17844677 252 18334017189633618469
1813 80 17167860898091171509
19141452 34 18412544349023355479
20157964 124 9079121054914285288
20621476 21 17967824859319659299
21150785 3 16515412863449640302
21267235 1 18271810074036489086
21403212 168 18342182121144055297
21623969 137 18342742905384770782
22950370 63 18336549399350843301
23035841 295 18113054917599046258
23522609 53 18045251346966437324
23559900 14 18409721885347292144
239999 70 18333449850913995890
26918003 58 18341890788062430661
2767999 5 13470408859636859187
2838139 119 10303818661455390379
3004659 81 18186521003776377202
351380 3 17530962488297516547
4015057 19 18270665593663702741
4073 2 18187649145207814442
465052 167 18413110537777477638
5104073 3 17703218641362322586
5924683 9 17916018148347691479
7226269 152 17703793579213071593
7495541 125 18334293180511546252
79837 15 17268928874347612200
8863177 126 18334580191084196026
9981440 41 12679469698872056893
999808 66 17676783036773796491

> <PUBCHEM_SHAPE_MULTIPOLES>
429.71
15.55
2.07
0.99
2.41
0.6
0.1
4.89
-4.13
0.38
-0.15
-0.97
-0.02
0.77

> <PUBCHEM_SHAPE_SELFOVERLAP>
952.431

> <PUBCHEM_SHAPE_VOLUME>
230.6

> <PUBCHEM_COORDINATE_TYPE>
2
5
10

$$$$
25166250
  -OEChem-05102415013D

 34 37  0     0  0  0  0  0  0999 V2000
   -6.1047   -0.7167    2.1251 Cl  0  0  0  0  0  0  0  0  0  0  0  0
   -1.3222   -0.8566   -1.0328 N   0  0  0  0  0  0  0  0  0  0  0  0
    5.9942    0.4283    0.5500 N   0  0  0  0  0  0  0  0  0  0  0  0
    0.0007   -1.9461    0.2674 N   0  0  0  0  0  0  0  0  0  0  0  0
   -1.2476   -1.8949   -0.1844 N   0  0  0  0  0  0  0  0  0  0  0  0
    6.0225    1.7597    0.3728 N   0  0  0  0  0  0  0  0  0  0  0  0
    2.0896   -0.6455   -0.0766 C   0  0  0  0  0  0  0  0  0  0  0  0
   -2.5607   -0.5366   -1.6957 C   0  0  0  0  0  0  0  0  0  0  0  0
    0.6998   -0.9244   -0.3128 C   0  0  0  0  0  0  0  0  0  0  0  0
    3.9133    0.9255    0.0691 C   0  0  0  0  0  0  0  0  0  0  0  0
    4.7575   -0.1340    0.3820 C   0  0  0  0  0  0  0  0  0  0  0  0
    2.5514    0.6737   -0.1663 C   0  0  0  0  0  0  0  0  0  0  0  0
   -0.1271   -0.2157   -1.1477 C   0  0  0  0  0  0  0  0  0  0  0  0
   -3.5424    0.1899   -0.8099 C   0  0  0  0  0  0  0  0  0  0  0  0
    2.9594   -1.6907    0.2395 C   0  0  0  0  0  0  0  0  0  0  0  0
    4.3178   -1.4561    0.4766 C   0  0  0  0  0  0  0  0  0  0  0  0
    4.7548    2.0585    0.0803 C   0  0  0  0  0  0  0  0  0  0  0  0
   -4.2834   -0.5171    0.1371 C   0  0  0  0  0  0  0  0  0  0  0  0
   -3.7089    1.5687   -0.9381 C   0  0  0  0  0  0  0  0  0  0  0  0
   -5.1907    0.1550    0.9560 C   0  0  0  0  0  0  0  0  0  0  0  0
   -4.6163    2.2409   -0.1192 C   0  0  0  0  0  0  0  0  0  0  0  0
   -5.3572    1.5339    0.8278 C   0  0  0  0  0  0  0  0  0  0  0  0
   -2.9991   -1.4739   -2.0602 H   0  0  0  0  0  0  0  0  0  0  0  0
   -2.3239    0.0595   -2.5854 H   0  0  0  0  0  0  0  0  0  0  0  0
    1.8908    1.5036   -0.4001 H   0  0  0  0  0  0  0  0  0  0  0  0
    0.0144    0.6436   -1.7890 H   0  0  0  0  0  0  0  0  0  0  0  0
    2.5982   -2.7154    0.3048 H   0  0  0  0  0  0  0  0  0  0  0  0
    4.9951   -2.2666    0.7213 H   0  0  0  0  0  0  0  0  0  0  0  0
    4.4950    3.0898   -0.1129 H   0  0  0  0  0  0  0  0  0  0  0  0
    6.8597   -0.0408    0.7861 H   0  0  0  0  0  0  0  0  0  0  0  0
   -4.1576   -1.5931    0.2333 H   0  0  0  0  0  0  0  0  0  0  0  0
   -3.1364    2.1319   -1.6703 H   0  0  0  0  0  0  0  0  0  0  0  0
   -4.7454    3.3147   -0.2186 H   0  0  0  0  0  0  0  0  0  0  0  0
   -6.0604    2.0709    1.4592 H   0  0  0  0  0  0  0  0  0  0  0  0
  1 20  1  0  0  0  0
  2  5  1  0  0  0  0
  2  8  1  0  0  0  0
  2 13  1  0  0  0  0
  3  6  1  0  0  0  0
  3 11  1  0  0  0  0
  3 30  1  0  0  0  0
  4  5  2  0  0  0  0
  4  9  1  0  0  0  0
  6 17  2  0  0  0  0
  7  9  1  0  0  0  0
  7 12  2  0  0  0  0
  7 15  1  0  0  0  0
  8 14  1  0  0  0  0
  8 23  1  0  0  0  0
  8 24  1  0  0  0  0
  9 13  2  0  0  0  0
 10 11  2  0  0  0  0
 10 12  1  0  0  0  0
 10 17  1  0  0  0  0
 11 16  1  0  0  0  0
 12 25  1  0  0  0  0
 13 26  1  0  0  0  0
 14 18  2  0  0  0  0
 14 19  1  0  0  0  0
 15 16  2  0  0  0  0
 15 27  1  0  0  0  0
 16 28  1  0  0  0  0
 17 29  1  0  0  0  0
 18 20  1  0  0  0  0
 18 31  1  0  0  0  0
 19 21  2  0  0  0  0
 19 32  1  0  0  0  0
 20 22  2  0  0  0  0
 21 22  1  0  0  0  0
 21 33  1  0  0  0  0
 22 34  1  0  0  0  0
M  END
> <PUBCHEM_COMPOUND_CID>
25166250

> <PUBCHEM_CONFORMER_RMSD>
0.6

> <PUBCHEM_CONFORMER_DIVERSEORDER>
1
79
61
87
99
50
68
107
124
119
46
127
53
55
70
51
44
48
29
10
102
110
65
101
80
125
109
77
54
106
49
26
103
41
126
94
8
75
7
116
63
78
81
9
100
113
16
114
104
27
45
56
22
47
20
25
111
123
115
122
4
93
73
121
58
13
98
33
86
23
37
112
59
76
12
82
97
42
43
24
60
17
69
64
92
66
85
71
108
36
120
90
38
14
32
19
2
62
83
88
5
11
91
21
57
118
28
39
105
15
95
6
30
84
40
67
34
117
18
72
96
74
31
35
3
52
89

> <PUBCHEM_MMFF94_PARTIAL_CHARGES>
31
1 -0.18
11 -0.15
12 -0.15
13 -0.3
14 -0.14
15 -0.15
16 -0.15
17 0.14
18 -0.15
19 -0.15
2 0.31
20 0.18
21 -0.15
22 -0.15
25 0.15
26 0.15
27 0.15
28 0.15
29 0.15
3 0.3
30 0.27
31 0.15
32 0.15
33 0.15
34 0.15
4 -0.23
5 -0.42
6 -0.71
7 0.05
8 0.4
9 0.17

> <PUBCHEM_EFFECTIVE_ROTOR_COUNT>
3

> <PUBCHEM_PHARMACOPHORE_FEATURES>
6
1 3 donor
1 6 acceptor
5 2 4 5 9 13 rings
5 3 6 10 11 17 rings
6 14 18 19 20 21 22 rings
6 7 10 11 12 15 16 rings

> <PUBCHEM_HEAVY_ATOM_COUNT>
22

> <PUBCHEM_ATOM_DEF_STEREO_COUNT>
0

> <PUBCHEM_ATOM_UDEF_STEREO_COUNT>
0

> <PUBCHEM_BOND_DEF_STEREO_COUNT>
0

> <PUBCHEM_BOND_UDEF_STEREO_COUNT>
0

> <PUBCHEM_ISOTOPIC_ATOM_COUNT>
0

> <PUBCHEM_COMPONENT_COUNT>
1

> <PUBCHEM_CACTVS_TAUTO_COUNT>
2

> <PUBCHEM_CONFORMER_ID>
018001AA00000001

> <PUBCHEM_MMFF94_ENERGY>
42.5166

> <PUBCHEM_FEATURE_SELFOVERLAP>
30.539

> <PUBCHEM_SHAPE_FINGERPRINT>
10 15 18187085078504971025
105312 117 16128654171689553461
11088757 655 17315934423228841699
11370993 144 18116152177962958895
11475781 23 12823015257729976282
11796584 16 11458419116070038281
12236239 1 18060697299640661638
12555020 224 9295288335623466213
12596602 18 17676204662938869121
12616971 3 18271235050165328606
12633257 1 15936704700330197885
12670543 26 12391519671761521519
12788726 201 17346604028031411464
12892183 10 18113620041296666087
13167372 99 18343580716518622800
13398642 44 17389113540022195556
13785724 45 17765150575787583942
14251764 75 17973452297797636748
14341114 176 18334299747136577641
14848160 23 8358251536287441285
14848178 5 11241969282653661237
15081414 286 18335698335013351316
15183329 4 15913332368620596492
15188451 53 16298672776190606147
15348495 7 18113620062402023355
1601671 61 17561360682313282188
16760501 71 18335987574499752268
17844677 252 18339927008766119391
17857418 61 8358263652717334932
17870717 6 10952048949267850597
18222031 100 14490197111112208415
18785283 64 17314241131660321428
19377110 9 17895483629978291911
200 152 8286204963077832670
20281389 69 18131627889527321616
20621476 91 16298387989429983281
21065199 12 18187368671491389111
21315759 148 18040723532513249475
21637258 2 13190336902533518031
21756936 100 18343577477654430151
22224240 67 18260551126302286507
22393880 68 11527940124188033237
23198884 109 15051734183965831253
23402539 116 8862949398081933199
2838139 119 17418088806423109792
3004659 81 10735877257458555620
312425 54 17385729041589210737
392239 28 18189350094766359361
4259306 186 8214141854444028845
465052 167 11530488804899356960
5104073 3 18113896009745372187
5283173 99 11671789243182174219
542803 24 17989485234054559262
57724786 102 17628645154994314281
602551 16 15791738502891263530
633830 44 18342449296967291318
7495541 125 13262398865085962574
76465 3 7997971284291332134
8272917 22 18201436948702552870
90127 26 18338521841627754943
960060 61 12175618499427337554
9996256 80 18271803557896225207

> <PUBCHEM_SHAPE_MULTIPOLES>
429.71
16.17
2.11
1.27
1.09
0.48
0.09
6.57
7.08
0.49
0.13
-2.13
-0.2
0.58

> <PUBCHEM_SHAPE_SELFOVERLAP>
951.087

> <PUBCHEM_SHAPE_VOLUME>
232.2

> <PUBCHEM_COORDINATE_TYPE>
2
5
10

$$$$
25166251
  -OEChem-05102415013D

 34 37  0     0  0  0  0  0  0999 V2000
   -6.5827    2.1784    1.4149 Cl  0  0  0  0  0  0  0  0  0  0  0  0
   -1.2415   -1.2780   -0.7511 N   0  0  0  0  0  0  0  0  0  0  0  0
    5.9813    0.7767    0.3873 N   0  0  0  0  0  0  0  0  0  0  0  0
    0.1505   -1.9655    0.7379 N   0  0  0  0  0  0  0  0  0  0  0  0
   -1.0994   -2.0936    0.3062 N   0  0  0  0  0  0  0  0  0  0  0  0
    5.9244    2.0339   -0.0829 N   0  0  0  0  0  0  0  0  0  0  0  0
    2.1518   -0.6485    0.0789 C   0  0  0  0  0  0  0  0  0  0  0  0
   -2.4991   -1.1912   -1.4486 C   0  0  0  0  0  0  0  0  0  0  0  0
    0.7821   -1.0583   -0.0668 C   0  0  0  0  0  0  0  0  0  0  0  0
    3.8720    1.0245   -0.1589 C   0  0  0  0  0  0  0  0  0  0  0  0
    4.7826    0.1160    0.3689 C   0  0  0  0  0  0  0  0  0  0  0  0
    2.5284    0.6431   -0.3103 C   0  0  0  0  0  0  0  0  0  0  0  0
   -0.0899   -0.6066   -1.0253 C   0  0  0  0  0  0  0  0  0  0  0  0
   -3.5234   -0.3470   -0.7316 C   0  0  0  0  0  0  0  0  0  0  0  0
    3.0869   -1.5410    0.6062 C   0  0  0  0  0  0  0  0  0  0  0  0
    4.4280   -1.1760    0.7631 C   0  0  0  0  0  0  0  0  0  0  0  0
    4.6397    2.1810   -0.4142 C   0  0  0  0  0  0  0  0  0  0  0  0
   -4.2161   -0.8688    0.3611 C   0  0  0  0  0  0  0  0  0  0  0  0
   -3.7765    0.9561   -1.1600 C   0  0  0  0  0  0  0  0  0  0  0  0
   -5.1618   -0.0876    1.0250 C   0  0  0  0  0  0  0  0  0  0  0  0
   -4.7222    1.7373   -0.4962 C   0  0  0  0  0  0  0  0  0  0  0  0
   -5.4149    1.2155    0.5964 C   0  0  0  0  0  0  0  0  0  0  0  0
   -2.8777   -2.2116   -1.5875 H   0  0  0  0  0  0  0  0  0  0  0  0
   -2.3026   -0.7959   -2.4527 H   0  0  0  0  0  0  0  0  0  0  0  0
    1.8159    1.3572   -0.7125 H   0  0  0  0  0  0  0  0  0  0  0  0
   -0.0046    0.0945   -1.8443 H   0  0  0  0  0  0  0  0  0  0  0  0
    2.7918   -2.5454    0.9042 H   0  0  0  0  0  0  0  0  0  0  0  0
    5.1561   -1.8680    1.1715 H   0  0  0  0  0  0  0  0  0  0  0  0
    4.3144    3.1249   -0.8284 H   0  0  0  0  0  0  0  0  0  0  0  0
    6.8752    0.4265    0.7082 H   0  0  0  0  0  0  0  0  0  0  0  0
   -4.0331   -1.8840    0.7026 H   0  0  0  0  0  0  0  0  0  0  0  0
   -3.2421    1.3755   -2.0082 H   0  0  0  0  0  0  0  0  0  0  0  0
   -5.6950   -0.5078    1.8740 H   0  0  0  0  0  0  0  0  0  0  0  0
   -4.9088    2.7511   -0.8409 H   0  0  0  0  0  0  0  0  0  0  0  0
  1 22  1  0  0  0  0
  2  5  1  0  0  0  0
  2  8  1  0  0  0  0
  2 13  1  0  0  0  0
  3  6  1  0  0  0  0
  3 11  1  0  0  0  0
  3 30  1  0  0  0  0
  4  5  2  0  0  0  0
  4  9  1  0  0  0  0
  6 17  2  0  0  0  0
  7  9  1  0  0  0  0
  7 12  2  0  0  0  0
  7 15  1  0  0  0  0
  8 14  1  0  0  0  0
  8 23  1  0  0  0  0
  8 24  1  0  0  0  0
  9 13  2  0  0  0  0
 10 11  2  0  0  0  0
 10 12  1  0  0  0  0
 10 17  1  0  0  0  0
 11 16  1  0  0  0  0
 12 25  1  0  0  0  0
 13 26  1  0  0  0  0
 14 18  2  0  0  0  0
 14 19  1  0  0  0  0
 15 16  2  0  0  0  0
 15 27  1  0  0  0  0
 16 28  1  0  0  0  0
 17 29  1  0  0  0  0
 18 20  1  0  0  0  0
 18 31  1  0  0  0  0
 19 21  2  0  0  0  0
 19 32  1  0  0  0  0
 20 22  2  0  0  0  0
 20 33  1  0  0  0  0
 21 22  1  0  0  0  0
 21 34  1  0  0  0  0
M  END
> <PUBCHEM_COMPOUND_CID>
25166251

> <PUBCHEM_CONFORMER_RMSD>
0.6

> <PUBCHEM_CONFORMER_DIVERSEORDER>
1
53
28
10
38
52
18
43
34
19
50
17
22
24
46
41
37
48
56
21
33
47
54
14
20
12
55
32
7
59
3
25
40
58
16
27
15
36
30
49
26
42
8
11
57
6
23
31
5
51
13
9
4
2
39
35
29
44
45

> <PUBCHEM_MMFF94_PARTIAL_CHARGES>
31
1 -0.18
11 -0.15
12 -0.15
13 -0.3
14 -0.14
15 -0.15
16 -0.15
17 0.14
18 -0.15
19 -0.15
2 0.31
20 -0.15
21 -0.15
22 0.18
25 0.15
26 0.15
27 0.15
28 0.15
29 0.15
3 0.3
30 0.27
31 0.15
32 0.15
33 0.15
34 0.15
4 -0.23
5 -0.42
6 -0.71
7 0.05
8 0.4
9 0.17

> <PUBCHEM_EFFECTIVE_ROTOR_COUNT>
3

> <PUBCHEM_PHARMACOPHORE_FEATURES>
6
1 3 donor
1 6 acceptor
5 2 4 5 9 13 rings
5 3 6 10 11 17 rings
6 14 18 19 20 21 22 rings
6 7 10 11 12 15 16 rings

> <PUBCHEM_HEAVY_ATOM_COUNT>
22

> <PUBCHEM_ATOM_DEF_STEREO_COUNT>
0

> <PUBCHEM_ATOM_UDEF_STEREO_COUNT>
0

> <PUBCHEM_BOND_DEF_STEREO_COUNT>
0

> <PUBCHEM_BOND_UDEF_STEREO_COUNT>
0

> <PUBCHEM_ISOTOPIC_ATOM_COUNT>
0

> <PUBCHEM_COMPONENT_COUNT>
1

> <PUBCHEM_CACTVS_TAUTO_COUNT>
2

> <PUBCHEM_CONFORMER_ID>
018001AB00000001

> <PUBCHEM_MMFF94_ENERGY>
42.548

> <PUBCHEM_FEATURE_SELFOVERLAP>
30.539

> <PUBCHEM_SHAPE_FINGERPRINT>
10 15 17822014198886619489
105312 117 16988842804344817423
10753850 27 8574424310465587157
11370993 144 17968376745653493155
12107183 9 18266452101443874386
12236239 1 18343862225538631954
12390115 104 18411709806823404191
12555020 224 11095881571176570005
12596602 18 18114181926045243201
12633257 1 15502669203936845025
12788726 201 17632303336863674488
12892183 10 16950839202975255271
13167372 99 18413107243231606448
13398642 44 16953675049511659292
13668630 136 10809341131121367128
13785724 45 17906448827921069674
14211702 104 11169906156703482160
14251764 75 17534640497075948980
14341114 176 18040719125892406701
14848178 5 8070033254811341629
15081414 286 18187361035145240404
15163728 17 17775014470286839943
15183329 4 16773804671102282724
15188451 53 14345800470103794297
15348495 7 17967535670470512435
15475509 35 15792284874798586618
15519825 34 16806185375051789849
1601671 61 18060698407715804756
16760501 71 18260833747217645997
17349148 13 11025798652323410239
17857418 61 9367353638937396764
17870717 6 13398627256429847573
18222031 100 10159701287578628614
18785283 64 16516542142978878428
200 152 9439410137458380142
20281389 69 18273212018994716368
20526848 3 18202287970559851089
21120745 212 17839737403114583791
21421861 104 17895458247370451810
21637258 2 11963397366615012771
21756936 100 18341609360594266863
22061861 79 11887954345614526473
22122407 14 18341625836168228609
22224240 67 17894914027732627683
22393880 68 12607399966950536317
23559900 14 17703509892202161574
25122255 55 7853584533886414184
270888 7 18129947763616327321
2838139 119 17846774105184661345
312425 54 17095529461671319865
3472631 163 18202847656037356285
46194498 28 14116361001995186187
465052 167 11674885484831060442
5104073 3 17968928812428610962
542803 24 18272086127946957022
57724786 102 17984706619635179047
59682541 52 15051178861441999941
602551 16 14851609890328695602
633830 44 18411694357483558719
636775 72 18053940938534062336
76465 3 7853852784932938471
7808743 9 18201436961523559585
7970288 3 10737295662193288793
8272917 22 18413387623361448006
960060 61 12751237030013441362

> <PUBCHEM_SHAPE_MULTIPOLES>
429.71
16.5
2.31
1.15
2.52
0.53
0.07
11.87
-4.43
-0.25
-0.2
1.31
0
-1.47

> <PUBCHEM_SHAPE_SELFOVERLAP>
951.053

> <PUBCHEM_SHAPE_VOLUME>
232.5

> <PUBCHEM_COORDINATE_TYPE>
2
5
10

$$$$
25166056
  -OEChem-05102415013D

 34 37  0     0  0  0  0  0  0999 V2000
   -3.3311    2.0580   -1.3560 F   0  0  0  0  0  0  0  0  0  0  0  0
   -1.4708   -1.0143   -0.8111 N   0  0  0  0  0  0  0  0  0  0  0  0
    5.8703    0.5232    0.3847 N   0  0  0  0  0  0  0  0  0  0  0  0
   -0.0236   -2.1037    0.3492 N   0  0  0  0  0  0  0  0  0  0  0  0
   -1.2990   -2.0875   -0.0224 N   0  0  0  0  0  0  0  0  0  0  0  0
    5.8312    1.8615    0.2735 N   0  0  0  0  0  0  0  0  0  0  0  0
    1.9827   -0.6949   -0.0556 C   0  0  0  0  0  0  0  0  0  0  0  0
   -2.7611   -0.7194   -1.3801 C   0  0  0  0  0  0  0  0  0  0  0  0
    0.5937   -1.0249   -0.2203 C   0  0  0  0  0  0  0  0  0  0  0  0
    3.7440    0.9481    0.0575 C   0  0  0  0  0  0  0  0  0  0  0  0
    4.6503   -0.0858    0.2644 C   0  0  0  0  0  0  0  0  0  0  0  0
    2.3818    0.6466   -0.1067 C   0  0  0  0  0  0  0  0  0  0  0  0
   -0.3135   -0.3152   -0.9663 C   0  0  0  0  0  0  0  0  0  0  0  0
   -3.7146   -0.0812   -0.4006 C   0  0  0  0  0  0  0  0  0  0  0  0
    2.9140   -1.7137    0.1536 C   0  0  0  0  0  0  0  0  0  0  0  0
    4.2736   -1.4294    0.3189 C   0  0  0  0  0  0  0  0  0  0  0  0
    4.5361    2.1163    0.0745 C   0  0  0  0  0  0  0  0  0  0  0  0
   -3.9490    1.2932   -0.4452 C   0  0  0  0  0  0  0  0  0  0  0  0
   -4.3621   -0.8684    0.5517 C   0  0  0  0  0  0  0  0  0  0  0  0
   -4.8309    1.8801    0.4624 C   0  0  0  0  0  0  0  0  0  0  0  0
   -5.2439   -0.2814    1.4592 C   0  0  0  0  0  0  0  0  0  0  0  0
   -5.4782    1.0928    1.4146 C   0  0  0  0  0  0  0  0  0  0  0  0
   -3.1820   -1.6584   -1.7609 H   0  0  0  0  0  0  0  0  0  0  0  0
   -2.6065   -0.0767   -2.2550 H   0  0  0  0  0  0  0  0  0  0  0  0
    1.6734    1.4559   -0.2575 H   0  0  0  0  0  0  0  0  0  0  0  0
   -0.2493    0.5792   -1.5709 H   0  0  0  0  0  0  0  0  0  0  0  0
    2.6012   -2.7556    0.1891 H   0  0  0  0  0  0  0  0  0  0  0  0
    4.9986   -2.2192    0.4806 H   0  0  0  0  0  0  0  0  0  0  0  0
    4.2213    3.1427   -0.0502 H   0  0  0  0  0  0  0  0  0  0  0  0
    6.7680    0.0830    0.5436 H   0  0  0  0  0  0  0  0  0  0  0  0
   -4.1937   -1.9411    0.5951 H   0  0  0  0  0  0  0  0  0  0  0  0
   -5.0131    2.9502    0.4275 H   0  0  0  0  0  0  0  0  0  0  0  0
   -5.7491   -0.8945    2.1998 H   0  0  0  0  0  0  0  0  0  0  0  0
   -6.1650    1.5497    2.1210 H   0  0  0  0  0  0  0  0  0  0  0  0
  1 18  1  0  0  0  0
  2  5  1  0  0  0  0
  2  8  1  0  0  0  0
  2 13  1  0  0  0  0
  3  6  1  0  0  0  0
  3 11  1  0  0  0  0
  3 30  1  0  0  0  0
  4  5  2  0  0  0  0
  4  9  1  0  0  0  0
  6 17  2  0  0  0  0
  7  9  1  0  0  0  0
  7 12  2  0  0  0  0
  7 15  1  0  0  0  0
  8 14  1  0  0  0  0
  8 23  1  0  0  0  0
  8 24  1  0  0  0  0
  9 13  2  0  0  0  0
 10 11  2  0  0  0  0
 10 12  1  0  0  0  0
 10 17  1  0  0  0  0
 11 16  1  0  0  0  0
 12 25  1  0  0  0  0
 13 26  1  0  0  0  0
 14 18  1  0  0  0  0
 14 19  2  0  0  0  0
 15 16  2  0  0  0  0
 15 27  1  0  0  0  0
 16 28  1  0  0  0  0
 17 29  1  0  0  0  0
 18 20  2  0  0  0  0
 19 21  1  0  0  0  0
 19 31  1  0  0  0  0
 20 22  1  0  0  0  0
 20 32  1  0  0  0  0
 21 22  2  0  0  0  0
 21 33  1  0  0  0  0
 22 34  1  0  0  0  0
M  END
> <PUBCHEM_COMPOUND_CID>
25166056

> <PUBCHEM_CONFORMER_RMSD>
0.6

> <PUBCHEM_CONFORMER_DIVERSEORDER>
1
53
22
95
21
39
99
103
40
76
105
61
69
93
75
101
96
43
19
60
45
20
62
100
56
57
48
87
59
72
102
44
15
18
107
47
24
51
3
94
92
74
97
38
23
104
85
46
54
71
78
42
52
66
32
11
106
64
41
9
26
108
90
70
34
29
67
77
13
80
2
17
36
27
6
28
14
73
82
89
37
16
91
30
50
84
8
83
55
33
35
7
65
63
4
58
79
25
12
10
81
86
68
49
5
88
31
98

> <PUBCHEM_MMFF94_PARTIAL_CHARGES>
31
1 -0.19
11 -0.15
12 -0.15
13 -0.3
14 -0.14
15 -0.15
16 -0.15
17 0.14
18 0.19
19 -0.15
2 0.31
20 -0.15
21 -0.15
22 -0.15
25 0.15
26 0.15
27 0.15
28 0.15
29 0.15
3 0.3
30 0.27
31 0.15
32 0.15
33 0.15
34 0.15
4 -0.23
5 -0.42
6 -0.71
7 0.05
8 0.4
9 0.17

> <PUBCHEM_EFFECTIVE_ROTOR_COUNT>
3

> <PUBCHEM_PHARMACOPHORE_FEATURES>
6
1 3 donor
1 6 acceptor
5 2 4 5 9 13 rings
5 3 6 10 11 17 rings
6 14 18 19 20 21 22 rings
6 7 10 11 12 15 16 rings

> <PUBCHEM_HEAVY_ATOM_COUNT>
22

> <PUBCHEM_ATOM_DEF_STEREO_COUNT>
0

> <PUBCHEM_ATOM_UDEF_STEREO_COUNT>
0

> <PUBCHEM_BOND_DEF_STEREO_COUNT>
0

> <PUBCHEM_BOND_UDEF_STEREO_COUNT>
0

> <PUBCHEM_ISOTOPIC_ATOM_COUNT>
0

> <PUBCHEM_COMPONENT_COUNT>
1

> <PUBCHEM_CACTVS_TAUTO_COUNT>
2

> <PUBCHEM_CONFORMER_ID>
018000E800000001

> <PUBCHEM_MMFF94_ENERGY>
41.9163

> <PUBCHEM_FEATURE_SELFOVERLAP>
30.539

> <PUBCHEM_SHAPE_FINGERPRINT>
10 15 18040718082004506689
105312 117 16343984723564485781
11089746 13 17203319040396776424
11315181 36 12107785211720198543
11370993 144 18189619350223742555
11595378 159 17240749654190041468
12107183 9 18124309398452087258
12236239 1 17988924483356618866
12403259 415 18261395494600849439
12555020 224 10015865371171907317
12596602 18 18040152911827151161
12788726 201 17275113786283173520
12892183 10 17749107751580430611
13167372 99 18272090479049385024
13398642 44 17462580716424997972
13544653 18 11025803080661799303
13583140 156 16226310586823629207
13675066 3 18187083923232770943
13785724 45 17837776625921770878
14251764 75 17100047561256774268
14341114 176 18261117339818571993
14848178 5 11169909502461490513
15081414 286 18409730656166454548
15163728 17 17346612854236280853
15183329 4 16056608633756550636
15188451 53 15936698163769684643
1601671 61 17704070698855404272
16760501 71 18336551623980619057
17349148 13 11746934252737600844
17844677 252 18338520741968369102
17870717 6 11815894557512870357
18222031 100 11963390743522591930
18785283 64 17241903170773560460
193927 3 11242250710364411952
200 152 7925915880618283207
20281389 69 18130786771779971496
21033648 29 18335968814214517705
21120745 212 17555445486113667191
21421861 104 18042108896401547946
21756936 100 18271803566164263319
22061861 79 10375870762124301097
22224240 67 18260271854670179107
23402655 69 18060133258807667326
23559900 14 17346038857854639718
25122255 55 11170182138632993760
2838139 119 17632572747314075896
312425 54 17313110709516523129
465052 167 11602545312194423648
5104073 3 18114740443149342274
5283173 99 11455900130704830555
542803 24 17989207057570566286
543358 83 18342173363278691306
57724786 102 17772198501176230291
602551 16 15791739615293146002
633830 44 18343016649336056943
636775 72 17911512414333149720
7495541 125 13118001119691152822
76465 3 10665225955882900982
8272917 22 18202004305255522542
90127 26 18337679628505637911
960060 61 12031788080562892194
9996256 80 18343300405246265503

> <PUBCHEM_SHAPE_MULTIPOLES>
420.57
14.88
2.22
1.08
2.08
0.33
-0.04
7.66
4.44
0.66
0.02
-1.57
0.08
-0.1

> <PUBCHEM_SHAPE_SELFOVERLAP>
943.866

> <PUBCHEM_SHAPE_VOLUME>
223.9

> <PUBCHEM_COORDINATE_TYPE>
2
5
10

$$$$
25166057
  -OEChem-05102415013D

 34 37  0     0  0  0  0  0  0999 V2000
   -5.8989   -0.5076    1.9260 F   0  0  0  0  0  0  0  0  0  0  0  0
   -1.3337   -0.8972   -0.9894 N   0  0  0  0  0  0  0  0  0  0  0  0
    5.9868    0.4584    0.5136 N   0  0  0  0  0  0  0  0  0  0  0  0
    0.0016   -1.9468    0.3308 N   0  0  0  0  0  0  0  0  0  0  0  0
   -1.2496   -1.9124   -0.1145 N   0  0  0  0  0  0  0  0  0  0  0  0
    6.0084    1.7848    0.3012 N   0  0  0  0  0  0  0  0  0  0  0  0
    2.0829   -0.6472   -0.0603 C   0  0  0  0  0  0  0  0  0  0  0  0
   -2.5776   -0.5997   -1.6528 C   0  0  0  0  0  0  0  0  0  0  0  0
    0.6929   -0.9379   -0.2804 C   0  0  0  0  0  0  0  0  0  0  0  0
    3.9008    0.9343    0.0327 C   0  0  0  0  0  0  0  0  0  0  0  0
    4.7514   -0.1131    0.3682 C   0  0  0  0  0  0  0  0  0  0  0  0
    2.5386    0.6710   -0.1876 C   0  0  0  0  0  0  0  0  0  0  0  0
   -0.1421   -0.2547   -1.1286 C   0  0  0  0  0  0  0  0  0  0  0  0
   -3.5569    0.1459   -0.7805 C   0  0  0  0  0  0  0  0  0  0  0  0
    2.9590   -1.6803    0.2778 C   0  0  0  0  0  0  0  0  0  0  0  0
    4.3178   -1.4340    0.5003 C   0  0  0  0  0  0  0  0  0  0  0  0
    4.7377    2.0707    0.0088 C   0  0  0  0  0  0  0  0  0  0  0  0
   -4.2895   -0.5392    0.1889 C   0  0  0  0  0  0  0  0  0  0  0  0
   -3.7301    1.5202   -0.9436 C   0  0  0  0  0  0  0  0  0  0  0  0
   -5.1953    0.1503    0.9950 C   0  0  0  0  0  0  0  0  0  0  0  0
   -4.6358    2.2098   -0.1375 C   0  0  0  0  0  0  0  0  0  0  0  0
   -5.3685    1.5247    0.8318 C   0  0  0  0  0  0  0  0  0  0  0  0
   -3.0143   -1.5481   -1.9896 H   0  0  0  0  0  0  0  0  0  0  0  0
   -2.3488   -0.0264   -2.5594 H   0  0  0  0  0  0  0  0  0  0  0  0
    1.8732    1.4917   -0.4390 H   0  0  0  0  0  0  0  0  0  0  0  0
   -0.0080    0.5879   -1.7932 H   0  0  0  0  0  0  0  0  0  0  0  0
    2.6025   -2.7044    0.3724 H   0  0  0  0  0  0  0  0  0  0  0  0
    5.0000   -2.2351    0.7621 H   0  0  0  0  0  0  0  0  0  0  0  0
    4.4724    3.0954   -0.2098 H   0  0  0  0  0  0  0  0  0  0  0  0
    6.8557   -0.0009    0.7567 H   0  0  0  0  0  0  0  0  0  0  0  0
   -4.1693   -1.6106    0.3239 H   0  0  0  0  0  0  0  0  0  0  0  0
   -3.1642    2.0664   -1.6936 H   0  0  0  0  0  0  0  0  0  0  0  0
   -4.7703    3.2800   -0.2641 H   0  0  0  0  0  0  0  0  0  0  0  0
   -6.0736    2.0612    1.4598 H   0  0  0  0  0  0  0  0  0  0  0  0
  1 20  1  0  0  0  0
  2  5  1  0  0  0  0
  2  8  1  0  0  0  0
  2 13  1  0  0  0  0
  3  6  1  0  0  0  0
  3 11  1  0  0  0  0
  3 30  1  0  0  0  0
  4  5  2  0  0  0  0
  4  9  1  0  0  0  0
  6 17  2  0  0  0  0
  7  9  1  0  0  0  0
  7 12  2  0  0  0  0
  7 15  1  0  0  0  0
  8 14  1  0  0  0  0
  8 23  1  0  0  0  0
  8 24  1  0  0  0  0
  9 13  2  0  0  0  0
 10 11  2  0  0  0  0
 10 12  1  0  0  0  0
 10 17  1  0  0  0  0
 11 16  1  0  0  0  0
 12 25  1  0  0  0  0
 13 26  1  0  0  0  0
 14 18  2  0  0  0  0
 14 19  1  0  0  0  0
 15 16  2  0  0  0  0
 15 27  1  0  0  0  0
 16 28  1  0  0  0  0
 17 29  1  0  0  0  0
 18 20  1  0  0  0  0
 18 31  1  0  0  0  0
 19 21  2  0  0  0  0
 19 32  1  0  0  0  0
 20 22  2  0  0  0  0
 21 22  1  0  0  0  0
 21 33  1  0  0  0  0
 22 34  1  0  0  0  0
M  END
> <PUBCHEM_COMPOUND_CID>
25166057

> <PUBCHEM_CONFORMER_RMSD>
0.6

> <PUBCHEM_CONFORMER_DIVERSEORDER>
1
58
73
79
107
46
53
48
114
106
100
49
101
56
74
89
47
44
27
113
41
97
64
38
20
95
103
71
75
57
112
105
62
93
110
66
26
96
88
108
13
6
50
76
9
77
5
37
25
22
19
42
98
102
21
72
67
52
10
111
54
86
43
65
55
45
90
40
32
15
14
24
23
60
87
104
11
94
18
78
4
39
61
35
28
33
59
84
80
12
34
99
92
3
81
51
109
30
7
36
85
17
8
63
16
29
68
82
31
70
83
2
91
69

> <PUBCHEM_MMFF94_PARTIAL_CHARGES>
31
1 -0.19
11 -0.15
12 -0.15
13 -0.3
14 -0.14
15 -0.15
16 -0.15
17 0.14
18 -0.15
19 -0.15
2 0.31
20 0.19
21 -0.15
22 -0.15
25 0.15
26 0.15
27 0.15
28 0.15
29 0.15
3 0.3
30 0.27
31 0.15
32 0.15
33 0.15
34 0.15
4 -0.23
5 -0.42
6 -0.71
7 0.05
8 0.4
9 0.17

> <PUBCHEM_EFFECTIVE_ROTOR_COUNT>
3

> <PUBCHEM_PHARMACOPHORE_FEATURES>
6
1 3 donor
1 6 acceptor
5 2 4 5 9 13 rings
5 3 6 10 11 17 rings
6 14 18 19 20 21 22 rings
6 7 10 11 12 15 16 rings

> <PUBCHEM_HEAVY_ATOM_COUNT>
22

> <PUBCHEM_ATOM_DEF_STEREO_COUNT>
0

> <PUBCHEM_ATOM_UDEF_STEREO_COUNT>
0

> <PUBCHEM_BOND_DEF_STEREO_COUNT>
0

> <PUBCHEM_BOND_UDEF_STEREO_COUNT>
0

> <PUBCHEM_ISOTOPIC_ATOM_COUNT>
0

> <PUBCHEM_COMPONENT_COUNT>
1

> <PUBCHEM_CACTVS_TAUTO_COUNT>
2

> <PUBCHEM_CONFORMER_ID>
018000E900000001

> <PUBCHEM_MMFF94_ENERGY>
41.834

> <PUBCHEM_FEATURE_SELFOVERLAP>
30.539

> <PUBCHEM_SHAPE_FINGERPRINT>
10 15 18114181955714537209
105312 117 16200148815768759357
11089746 13 17346306129553148480
11370993 144 18115306657795073939
11796584 16 15698001851727830606
12236239 1 18060134349687246806
12555020 224 9727633904024694941
12596602 18 17967250884237702929
12616971 3 18342728594754064174
12633257 1 15864365635610507085
12670543 26 12679468572841557615
12788726 201 17418098672100145800
12892183 10 18040716922780048655
13167372 99 18343299241541918640
13398642 44 17316775570508615764
13785724 45 17836645219866822330
14251764 75 17974295618915866332
14341114 176 18333736792861834765
14848160 23 8430310229826454005
14848178 5 11097852995045085077
15081414 286 18335136484571544804
15183329 4 15913333468153316828
15188451 53 16226053331726689483
15348495 7 18113338595978330539
1601671 61 17560797732354579628
16760501 71 18334861670445654980
17844677 252 18339364054507168287
17857418 61 8430321246744687372
17870717 6 11383830464004027885
18222031 100 13840270285874999742
18785283 64 17241620587711150732
200 152 8358262552826087527
20281389 69 18130783464591927872
21315759 148 17967822617341209195
21637258 2 12901544675961092279
21756936 100 18343014527701028311
22224240 67 18187366532840593947
22393880 68 11743830336103184197
23198884 109 15410896254190606069
23402539 116 9079123275359629903
25122255 55 11097848558417812744
2838139 119 17560795524451544752
312425 54 17240486854068569153
392239 28 18188787140486361201
4259306 186 8430314640831667949
465052 167 11602827878124514872
5104073 3 18040993990761436043
5283173 99 11671791442168506507
542803 24 17988922284101137934
57724786 102 17700138699577749145
602551 16 15647060369162215402
633830 44 18341887446520242503
7495541 125 13118002206323108070
76465 3 8070028878329266550
8272917 22 18273213072053469166
90127 26 18337958895932397103
960060 61 12247676093459971258
9996256 80 18343299301476541831

> <PUBCHEM_SHAPE_MULTIPOLES>
420.57
15.64
2.11
1.14
0.53
0.46
0
7.71
5.34
0.68
0.09
-1.71
-0.12
-0.04

> <PUBCHEM_SHAPE_SELFOVERLAP>
943.094

> <PUBCHEM_SHAPE_VOLUME>
224.2

> <PUBCHEM_COORDINATE_TYPE>
2
5
10

$$$$
25166058
  -OEChem-05102415013D

 34 37  0     0  0  0  0  0  0999 V2000
   -6.3187    1.9815    1.3199 F   0  0  0  0  0  0  0  0  0  0  0  0
   -1.2643   -1.2413   -0.7682 N   0  0  0  0  0  0  0  0  0  0  0  0
    5.9764    0.7394    0.3868 N   0  0  0  0  0  0  0  0  0  0  0  0
    0.1302   -1.9747    0.6964 N   0  0  0  0  0  0  0  0  0  0  0  0
   -1.1225   -2.0841    0.2676 N   0  0  0  0  0  0  0  0  0  0  0  0
    5.9253    2.0084   -0.0514 N   0  0  0  0  0  0  0  0  0  0  0  0
    2.1366   -0.6539    0.0611 C   0  0  0  0  0  0  0  0  0  0  0  0
   -2.5247   -1.1292   -1.4572 C   0  0  0  0  0  0  0  0  0  0  0  0
    0.7637   -1.0514   -0.0882 C   0  0  0  0  0  0  0  0  0  0  0  0
    3.8662    1.0139   -0.1429 C   0  0  0  0  0  0  0  0  0  0  0  0
    4.7735    0.0868    0.3575 C   0  0  0  0  0  0  0  0  0  0  0  0
    2.5196    0.6447   -0.2973 C   0  0  0  0  0  0  0  0  0  0  0  0
   -0.1099   -0.5703   -1.0309 C   0  0  0  0  0  0  0  0  0  0  0  0
   -3.5403   -0.2970   -0.7143 C   0  0  0  0  0  0  0  0  0  0  0  0
    3.0686   -1.5651    0.5612 C   0  0  0  0  0  0  0  0  0  0  0  0
    4.4127   -1.2125    0.7208 C   0  0  0  0  0  0  0  0  0  0  0  0
    4.6400    2.1717   -0.3727 C   0  0  0  0  0  0  0  0  0  0  0  0
   -4.2310   -0.8419    0.3682 C   0  0  0  0  0  0  0  0  0  0  0  0
   -3.7880    1.0176   -1.1093 C   0  0  0  0  0  0  0  0  0  0  0  0
   -5.1696   -0.0722    1.0554 C   0  0  0  0  0  0  0  0  0  0  0  0
   -4.7266    1.7873   -0.4223 C   0  0  0  0  0  0  0  0  0  0  0  0
   -5.4174    1.2424    0.6600 C   0  0  0  0  0  0  0  0  0  0  0  0
   -2.9103   -2.1433   -1.6200 H   0  0  0  0  0  0  0  0  0  0  0  0
   -2.3303   -0.7099   -2.4519 H   0  0  0  0  0  0  0  0  0  0  0  0
    1.8098    1.3733   -0.6781 H   0  0  0  0  0  0  0  0  0  0  0  0
   -0.0239    0.1506   -1.8325 H   0  0  0  0  0  0  0  0  0  0  0  0
    2.7685   -2.5749    0.8354 H   0  0  0  0  0  0  0  0  0  0  0  0
    5.1382   -1.9190    1.1083 H   0  0  0  0  0  0  0  0  0  0  0  0
    4.3187    3.1277   -0.7613 H   0  0  0  0  0  0  0  0  0  0  0  0
    6.8698    0.3757    0.6945 H   0  0  0  0  0  0  0  0  0  0  0  0
   -4.0523   -1.8661    0.6839 H   0  0  0  0  0  0  0  0  0  0  0  0
   -3.2552    1.4551   -1.9495 H   0  0  0  0  0  0  0  0  0  0  0  0
   -5.7086   -0.4964    1.8974 H   0  0  0  0  0  0  0  0  0  0  0  0
   -4.9194    2.8109   -0.7293 H   0  0  0  0  0  0  0  0  0  0  0  0
  1 22  1  0  0  0  0
  2  5  1  0  0  0  0
  2  8  1  0  0  0  0
  2 13  1  0  0  0  0
  3  6  1  0  0  0  0
  3 11  1  0  0  0  0
  3 30  1  0  0  0  0
  4  5  2  0  0  0  0
  4  9  1  0  0  0  0
  6 17  2  0  0  0  0
  7  9  1  0  0  0  0
  7 12  2  0  0  0  0
  7 15  1  0  0  0  0
  8 14  1  0  0  0  0
  8 23  1  0  0  0  0
  8 24  1  0  0  0  0
  9 13  2  0  0  0  0
 10 11  2  0  0  0  0
 10 12  1  0  0  0  0
 10 17  1  0  0  0  0
 11 16  1  0  0  0  0
 12 25  1  0  0  0  0
 13 26  1  0  0  0  0
 14 18  2  0  0  0  0
 14 19  1  0  0  0  0
 15 16  2  0  0  0  0
 15 27  1  0  0  0  0
 16 28  1  0  0  0  0
 17 29  1  0  0  0  0
 18 20  1  0  0  0  0
 18 31  1  0  0  0  0
 19 21  2  0  0  0  0
 19 32  1  0  0  0  0
 20 22  2  0  0  0  0
 20 33  1  0  0  0  0
 21 22  1  0  0  0  0
 21 34  1  0  0  0  0
M  END
> <PUBCHEM_COMPOUND_CID>
25166058

> <PUBCHEM_CONFORMER_RMSD>
0.6

> <PUBCHEM_CONFORMER_DIVERSEORDER>
1
52
26
10
30
50
17
41
3
47
53
38
55
54
14
18
57
23
44
49
36
34
21
20
45
19
11
31
13
56
25
7
46
32
39
16
24
40
43
15
37
48
9
12
5
22
28
29
6
51
4
8
2
35
33
27
42

> <PUBCHEM_MMFF94_PARTIAL_CHARGES>
31
1 -0.19
11 -0.15
12 -0.15
13 -0.3
14 -0.14
15 -0.15
16 -0.15
17 0.14
18 -0.15
19 -0.15
2 0.31
20 -0.15
21 -0.15
22 0.19
25 0.15
26 0.15
27 0.15
28 0.15
29 0.15
3 0.3
30 0.27
31 0.15
32 0.15
33 0.15
34 0.15
4 -0.23
5 -0.42
6 -0.71
7 0.05
8 0.4
9 0.17

> <PUBCHEM_EFFECTIVE_ROTOR_COUNT>
3

> <PUBCHEM_PHARMACOPHORE_FEATURES>
6
1 3 donor
1 6 acceptor
5 2 4 5 9 13 rings
5 3 6 10 11 17 rings
6 14 18 19 20 21 22 rings
6 7 10 11 12 15 16 rings

> <PUBCHEM_HEAVY_ATOM_COUNT>
22

> <PUBCHEM_ATOM_DEF_STEREO_COUNT>
0

> <PUBCHEM_ATOM_UDEF_STEREO_COUNT>
0

> <PUBCHEM_BOND_DEF_STEREO_COUNT>
0

> <PUBCHEM_BOND_UDEF_STEREO_COUNT>
0

> <PUBCHEM_ISOTOPIC_ATOM_COUNT>
0

> <PUBCHEM_COMPONENT_COUNT>
1

> <PUBCHEM_CACTVS_TAUTO_COUNT>
2

> <PUBCHEM_CONFORMER_ID>
018000EA00000001

> <PUBCHEM_MMFF94_ENERGY>
41.842

> <PUBCHEM_FEATURE_SELFOVERLAP>
30.539

> <PUBCHEM_SHAPE_FINGERPRINT>
10 15 17894352172626549361
105312 117 16917348155954768015
10912923 1 18339629118387934798
11089746 13 17846206804872259856
11370993 144 18040715814668118739
12107183 9 18194393403599357858
12236239 1 18272086102055879306
12403259 415 17967530125562257711
12555020 224 11167940268899754269
12596602 18 18113900451047446529
12633257 1 15502669203905216005
12788726 201 17632303336895303520
12892183 10 17023178271947715335
13167372 99 18413388722566587912
13398642 44 17026014118531585612
13785724 45 17906730302929435290
14211702 104 11025792068181445528
14251764 75 16809004617196997844
14341114 176 18041282075803629989
14508225 48 12463573988750615474
14848178 5 7997975660757602429
15081414 286 18259700104159885500
15163728 17 17703520925708653847
15183329 4 16630252432985129396
15188451 53 14851893586357399089
15348495 7 17967535670423052659
15475509 35 15792283775350242874
1601671 61 17989203759325787812
16760501 71 18261115226452413677
17349148 13 11169914939895043647
17857418 61 9295296044899488316
18222031 100 10015586095213067214
18785283 64 16588881211988268244
200 152 9295294949366687014
20281389 69 18273212019015821872
21120745 212 17840018882344050759
21421861 104 17895739722357731458
21637258 2 12035735340323352587
21756936 100 18341327885554252671
22061861 79 11815896751539668777
22224240 67 17967253101042246563
22393880 68 12535342372896790597
23402655 69 18273209820430455174
23559900 14 17632015248091274718
25122255 55 7925638829336717745
2838139 119 17774997986023230305
312425 54 17022907813841791945
465052 167 11314314935968845842
5104073 3 18041267885764590610
542803 24 18272649073589586782
5718773 13 12036027823671099761
57724786 102 17985270669100221675
59682541 52 14835850504216163053
602551 16 14923950058844425466
633830 44 18412257307431698799
636775 72 18053658368393464672
76465 3 8286202751232998087
7808743 9 18272650139121024345
7970288 3 10665239163361484793
8272917 22 18341894074472502886
960060 61 12679459807140354266
9996256 80 18340203089607174343

> <PUBCHEM_SHAPE_MULTIPOLES>
420.57
15.81
2.22
1.08
1.32
0.41
0.08
10.2
-4.12
-0.52
-0.16
1.28
-0.02
-1.07

> <PUBCHEM_SHAPE_SELFOVERLAP>
943.077

> <PUBCHEM_SHAPE_VOLUME>
224.4

> <PUBCHEM_COORDINATE_TYPE>
2
5
10

$$$$
25166053
  -OEChem-05102415013D

 37 40  0     0  0  0  0  0  0999 V2000
   -1.3292   -0.8820   -1.0062 N   0  0  0  0  0  0  0  0  0  0  0  0
   -1.2488   -1.9059   -0.1410 N   0  0  0  0  0  0  0  0  0  0  0  0
    5.9897    0.4472    0.5277 N   0  0  0  0  0  0  0  0  0  0  0  0
    0.0012   -1.9465    0.3070 N   0  0  0  0  0  0  0  0  0  0  0  0
    6.0140    1.7755    0.3283 N   0  0  0  0  0  0  0  0  0  0  0  0
   -2.5709   -0.5762   -1.6697 C   0  0  0  0  0  0  0  0  0  0  0  0
    2.0856   -0.6466   -0.0663 C   0  0  0  0  0  0  0  0  0  0  0  0
   -3.5512    0.1625   -0.7925 C   0  0  0  0  0  0  0  0  0  0  0  0
    0.6956   -0.9328   -0.2927 C   0  0  0  0  0  0  0  0  0  0  0  0
    3.9057    0.9311    0.0463 C   0  0  0  0  0  0  0  0  0  0  0  0
   -0.1362   -0.2402   -1.1362 C   0  0  0  0  0  0  0  0  0  0  0  0
    4.7539   -0.1209    0.3737 C   0  0  0  0  0  0  0  0  0  0  0  0
    2.5437    0.6721   -0.1798 C   0  0  0  0  0  0  0  0  0  0  0  0
    2.9592   -1.6843    0.2638 C   0  0  0  0  0  0  0  0  0  0  0  0
   -4.2868   -0.5306    0.1688 C   0  0  0  0  0  0  0  0  0  0  0  0
    4.3178   -1.4423    0.4920 C   0  0  0  0  0  0  0  0  0  0  0  0
   -5.1932    0.1525    0.9797 C   0  0  0  0  0  0  0  0  0  0  0  0
   -3.7219    1.5387   -0.9428 C   0  0  0  0  0  0  0  0  0  0  0  0
    4.7445    2.0663    0.0356 C   0  0  0  0  0  0  0  0  0  0  0  0
   -5.3637    1.5287    0.8294 C   0  0  0  0  0  0  0  0  0  0  0  0
   -4.6281    2.2219   -0.1318 C   0  0  0  0  0  0  0  0  0  0  0  0
   -5.9808   -0.5882    2.0067 C   0  0  0  0  0  0  0  0  0  0  0  0
   -3.0082   -1.5205   -2.0169 H   0  0  0  0  0  0  0  0  0  0  0  0
   -2.3390    0.0056   -2.5701 H   0  0  0  0  0  0  0  0  0  0  0  0
    0.0008    0.6086   -1.7923 H   0  0  0  0  0  0  0  0  0  0  0  0
    1.8802    1.4963   -0.4248 H   0  0  0  0  0  0  0  0  0  0  0  0
    2.6008   -2.7087    0.3476 H   0  0  0  0  0  0  0  0  0  0  0  0
   -4.1611   -1.6046    0.2829 H   0  0  0  0  0  0  0  0  0  0  0  0
    4.9981   -2.2470    0.7476 H   0  0  0  0  0  0  0  0  0  0  0  0
   -3.1536    2.0910   -1.6864 H   0  0  0  0  0  0  0  0  0  0  0  0
    4.4813    3.0935   -0.1738 H   0  0  0  0  0  0  0  0  0  0  0  0
    6.8573   -0.0158    0.7684 H   0  0  0  0  0  0  0  0  0  0  0  0
   -6.0680    2.0722    1.4537 H   0  0  0  0  0  0  0  0  0  0  0  0
   -4.7608    3.2935   -0.2488 H   0  0  0  0  0  0  0  0  0  0  0  0
   -6.9045   -0.9749    1.5649 H   0  0  0  0  0  0  0  0  0  0  0  0
   -5.4066   -1.4278    2.4132 H   0  0  0  0  0  0  0  0  0  0  0  0
   -6.2409    0.0597    2.8507 H   0  0  0  0  0  0  0  0  0  0  0  0
  1  2  1  0  0  0  0
  1  6  1  0  0  0  0
  1 11  1  0  0  0  0
  2  4  2  0  0  0  0
  3  5  1  0  0  0  0
  3 12  1  0  0  0  0
  3 32  1  0  0  0  0
  4  9  1  0  0  0  0
  5 19  2  0  0  0  0
  6  8  1  0  0  0  0
  6 23  1  0  0  0  0
  6 24  1  0  0  0  0
  7  9  1  0  0  0  0
  7 13  2  0  0  0  0
  7 14  1  0  0  0  0
  8 15  1  0  0  0  0
  8 18  2  0  0  0  0
  9 11  2  0  0  0  0
 10 12  2  0  0  0  0
 10 13  1  0  0  0  0
 10 19  1  0  0  0  0
 11 25  1  0  0  0  0
 12 16  1  0  0  0  0
 13 26  1  0  0  0  0
 14 16  2  0  0  0  0
 14 27  1  0  0  0  0
 15 17  2  0  0  0  0
 15 28  1  0  0  0  0
 16 29  1  0  0  0  0
 17 20  1  0  0  0  0
 17 22  1  0  0  0  0
 18 21  1  0  0  0  0
 18 30  1  0  0  0  0
 19 31  1  0  0  0  0
 20 21  2  0  0  0  0
 20 33  1  0  0  0  0
 21 34  1  0  0  0  0
 22 35  1  0  0  0  0
 22 36  1  0  0  0  0
 22 37  1  0  0  0  0
M  END
> <PUBCHEM_COMPOUND_CID>
25166053

> <PUBCHEM_CONFORMER_RMSD>
0.6

> <PUBCHEM_CONFORMER_DIVERSEORDER>
1
82
60
74
105
76
110
104
119
108
56
50
27
78
64
53
93
79
4
59
69
81
98
116
46
51
118
44
52
42
48
67
100
117
77
70
16
101
43
75
106
49
21
25
31
92
109
17
63
115
107
114
96
55
7
45
22
83
10
23
12
38
26
62
99
20
41
34
112
47
58
13
97
24
40
91
57
39
88
90
19
103
30
61
14
36
35
113
2
111
68
11
5
89
9
84
8
65
37
18
102
80
66
94
15
6
54
32
85
73
28
72
86
95
3
33
71
29
87

> <PUBCHEM_MMFF94_PARTIAL_CHARGES>
31
1 0.31
11 -0.3
12 -0.15
13 -0.15
14 -0.15
15 -0.15
16 -0.15
17 -0.14
18 -0.15
19 0.14
2 -0.42
20 -0.15
21 -0.15
22 0.14
25 0.15
26 0.15
27 0.15
28 0.15
29 0.15
3 0.3
30 0.15
31 0.15
32 0.27
33 0.15
34 0.15
4 -0.23
5 -0.71
6 0.4
7 0.05
8 -0.14
9 0.17

> <PUBCHEM_EFFECTIVE_ROTOR_COUNT>
3

> <PUBCHEM_PHARMACOPHORE_FEATURES>
6
1 3 donor
1 5 acceptor
5 1 2 4 9 11 rings
5 3 5 10 12 19 rings
6 7 10 12 13 14 16 rings
6 8 15 17 18 20 21 rings

> <PUBCHEM_HEAVY_ATOM_COUNT>
22

> <PUBCHEM_ATOM_DEF_STEREO_COUNT>
0

> <PUBCHEM_ATOM_UDEF_STEREO_COUNT>
0

> <PUBCHEM_BOND_DEF_STEREO_COUNT>
0

> <PUBCHEM_BOND_UDEF_STEREO_COUNT>
0

> <PUBCHEM_ISOTOPIC_ATOM_COUNT>
0

> <PUBCHEM_COMPONENT_COUNT>
1

> <PUBCHEM_CACTVS_TAUTO_COUNT>
2

> <PUBCHEM_CONFORMER_ID>
018000E500000001

> <PUBCHEM_MMFF94_ENERGY>
44.3298

> <PUBCHEM_FEATURE_SELFOVERLAP>
30.539

> <PUBCHEM_SHAPE_FINGERPRINT>
10 15 18186522124246045889
105312 117 16128373796235000597
11088757 655 17315652948236306803
11370993 144 18115589228025368339
11796584 16 11386361522058484137
12236239 1 18060415824653414454
12555020 224 9439403523672948357
12596602 18 17676204662917770121
12616971 3 18343011169221297102
12670543 26 12535353384818462231
12788726 201 17346323652566335080
12892183 10 18041280972266203239
13167372 99 18343581816019701072
13398642 44 17389113544296050852
13785724 45 17764870200301408538
14251764 75 17974015243440246972
14341114 176 18334018272159866993
14848160 23 8358252635814886829
14848178 5 11169910589114648533
15081414 286 18335417959537712420
15183329 4 13542469743456082295
15188451 53 16226052232204525187
15348495 7 18113620066702278403
1601671 61 17561360682292170184
16760501 71 18335424624614909260
17844677 252 18339645533810520719
17857418 61 8286206058647738972
17870717 6 11024106543305772029
18222031 100 14345800448049098855
18785283 64 17314241131665589668
19377110 9 17895202159254370031
200 152 8286204958803977359
20281389 69 18131627889522033864
21065199 12 18114748123210327839
21315759 148 17968104088033515035
21637258 2 13045940239486226243
21756936 100 18343296002688288479
22224240 67 18260269655620562659
22393880 68 11671772742065249741
23198884 109 15195286422061885565
25122255 55 10953735573570534880
2838139 119 17418088806417809056
3004659 81 10807934851496483540
312425 54 17313107402365409225
392239 28 18188787140502185473
4259306 186 8214142953955650117
465052 167 11530488809104608016
5104073 3 18040992891228696259
5283173 99 11671789238881938675
542803 24 17988922284106412678
57724786 102 17700421274066068097
602551 16 15719399438155767978
633830 44 18341887446530779014
7495541 125 13190341275332471910
76465 3 7997971284275520854
8272917 22 18273494547035454574
90127 26 18337958891690164359
960060 61 12175619603239194394
9996256 80 18343580776469076735

> <PUBCHEM_SHAPE_MULTIPOLES>
427.84
16.01
2.1
1.22
1.25
0.48
0.04
7.06
6.4
0.62
0.1
-1.96
-0.16
0.32

> <PUBCHEM_SHAPE_SELFOVERLAP>
954.148

> <PUBCHEM_SHAPE_VOLUME>
230.4

> <PUBCHEM_COORDINATE_TYPE>
2
5
10

$$$$
25166657
  -OEChem-05102415013D

 34 37  0     0  0  0  0  0  0999 V2000
   -2.4687   -2.0813   -0.8071 Cl  0  0  0  0  0  0  0  0  0  0  0  0
   -4.9275   -2.9957    1.0479 Cl  0  0  0  0  0  0  0  0  0  0  0  0
   -1.1819    1.0531   -0.7986 N   0  0  0  0  0  0  0  0  0  0  0  0
    6.1592   -0.4721    0.4110 N   0  0  0  0  0  0  0  0  0  0  0  0
   -1.1162    1.8588    0.2738 N   0  0  0  0  0  0  0  0  0  0  0  0
    0.1336    1.8173    0.7222 N   0  0  0  0  0  0  0  0  0  0  0  0
    6.2037   -1.7215   -0.0811 N   0  0  0  0  0  0  0  0  0  0  0  0
   -2.4201    0.8832   -1.5154 C   0  0  0  0  0  0  0  0  0  0  0  0
    2.2372    0.6656    0.0723 C   0  0  0  0  0  0  0  0  0  0  0  0
    0.8428    0.9743   -0.0876 C   0  0  0  0  0  0  0  0  0  0  0  0
    4.0819   -0.8685   -0.1689 C   0  0  0  0  0  0  0  0  0  0  0  0
   -3.5511    0.3914   -0.6464 C   0  0  0  0  0  0  0  0  0  0  0  0
    4.9144    0.0965    0.3869 C   0  0  0  0  0  0  0  0  0  0  0  0
    0.0205    0.4748   -1.0661 C   0  0  0  0  0  0  0  0  0  0  0  0
    2.7154   -0.5868   -0.3330 C   0  0  0  0  0  0  0  0  0  0  0  0
    3.0953    1.6165    0.6277 C   0  0  0  0  0  0  0  0  0  0  0  0
    4.4580    1.3510    0.7974 C   0  0  0  0  0  0  0  0  0  0  0  0
   -3.6636   -0.9460   -0.2660 C   0  0  0  0  0  0  0  0  0  0  0  0
   -4.5017    1.3197   -0.2217 C   0  0  0  0  0  0  0  0  0  0  0  0
    4.9381   -1.9592   -0.4329 C   0  0  0  0  0  0  0  0  0  0  0  0
   -4.7269   -1.3550    0.5389 C   0  0  0  0  0  0  0  0  0  0  0  0
   -5.5649    0.9107    0.5831 C   0  0  0  0  0  0  0  0  0  0  0  0
   -5.6775   -0.4267    0.9634 C   0  0  0  0  0  0  0  0  0  0  0  0
   -2.2546    0.2142   -2.3675 H   0  0  0  0  0  0  0  0  0  0  0  0
   -2.6611    1.8608   -1.9524 H   0  0  0  0  0  0  0  0  0  0  0  0
    0.1714   -0.2018   -1.8962 H   0  0  0  0  0  0  0  0  0  0  0  0
    2.0642   -1.3453   -0.7573 H   0  0  0  0  0  0  0  0  0  0  0  0
    2.7212    2.5905    0.9381 H   0  0  0  0  0  0  0  0  0  0  0  0
    5.1263    2.0885    1.2275 H   0  0  0  0  0  0  0  0  0  0  0  0
   -4.4285    2.3659   -0.5066 H   0  0  0  0  0  0  0  0  0  0  0  0
    4.6904   -2.9174   -0.8675 H   0  0  0  0  0  0  0  0  0  0  0  0
    7.0201   -0.0613    0.7502 H   0  0  0  0  0  0  0  0  0  0  0  0
   -6.3047    1.6336    0.9142 H   0  0  0  0  0  0  0  0  0  0  0  0
   -6.5127   -0.7273    1.5913 H   0  0  0  0  0  0  0  0  0  0  0  0
  1 18  1  0  0  0  0
  2 21  1  0  0  0  0
  3  5  1  0  0  0  0
  3  8  1  0  0  0  0
  3 14  1  0  0  0  0
  4  7  1  0  0  0  0
  4 13  1  0  0  0  0
  4 32  1  0  0  0  0
  5  6  2  0  0  0  0
  6 10  1  0  0  0  0
  7 20  2  0  0  0  0
  8 12  1  0  0  0  0
  8 24  1  0  0  0  0
  8 25  1  0  0  0  0
  9 10  1  0  0  0  0
  9 15  2  0  0  0  0
  9 16  1  0  0  0  0
 10 14  2  0  0  0  0
 11 13  2  0  0  0  0
 11 15  1  0  0  0  0
 11 20  1  0  0  0  0
 12 18  2  0  0  0  0
 12 19  1  0  0  0  0
 13 17  1  0  0  0  0
 14 26  1  0  0  0  0
 15 27  1  0  0  0  0
 16 17  2  0  0  0  0
 16 28  1  0  0  0  0
 17 29  1  0  0  0  0
 18 21  1  0  0  0  0
 19 22  2  0  0  0  0
 19 30  1  0  0  0  0
 20 31  1  0  0  0  0
 21 23  2  0  0  0  0
 22 23  1  0  0  0  0
 22 33  1  0  0  0  0
 23 34  1  0  0  0  0
M  END
> <PUBCHEM_COMPOUND_CID>
25166657

> <PUBCHEM_CONFORMER_RMSD>
0.6

> <PUBCHEM_CONFORMER_DIVERSEORDER>
1
6
109
60
11
97
47
106
92
46
41
103
63
99
23
120
75
69
118
105
88
43
59
57
39
42
2
45
121
102
34
107
115
51
15
91
21
78
81
117
85
72
20
32
95
89
84
53
38
113
104
61
73
29
44
54
5
71
67
37
55
108
79
66
70
4
50
35
68
14
100
112
58
116
74
18
8
36
28
110
77
80
22
65
48
3
25
7
86
52
12
76
64
33
119
31
13
111
26
10
87
16
17
101
96
40
83
90
19
114
93
56
82
94
9
62
30
27
49
98
24

> <PUBCHEM_MMFF94_PARTIAL_CHARGES>
31
1 -0.18
10 0.17
12 -0.14
13 -0.15
14 -0.3
15 -0.15
16 -0.15
17 -0.15
18 0.18
19 -0.15
2 -0.18
20 0.14
21 0.18
22 -0.15
23 -0.15
26 0.15
27 0.15
28 0.15
29 0.15
3 0.31
30 0.15
31 0.15
32 0.27
33 0.15
34 0.15
4 0.3
5 -0.42
6 -0.23
7 -0.71
8 0.4
9 0.05

> <PUBCHEM_EFFECTIVE_ROTOR_COUNT>
3

> <PUBCHEM_PHARMACOPHORE_FEATURES>
6
1 4 donor
1 7 acceptor
5 3 5 6 10 14 rings
5 4 7 11 13 20 rings
6 12 18 19 21 22 23 rings
6 9 11 13 15 16 17 rings

> <PUBCHEM_HEAVY_ATOM_COUNT>
23

> <PUBCHEM_ATOM_DEF_STEREO_COUNT>
0

> <PUBCHEM_ATOM_UDEF_STEREO_COUNT>
0

> <PUBCHEM_BOND_DEF_STEREO_COUNT>
0

> <PUBCHEM_BOND_UDEF_STEREO_COUNT>
0

> <PUBCHEM_ISOTOPIC_ATOM_COUNT>
0

> <PUBCHEM_COMPONENT_COUNT>
1

> <PUBCHEM_CACTVS_TAUTO_COUNT>
2

> <PUBCHEM_CONFORMER_ID>
0180034100000001

> <PUBCHEM_MMFF94_ENERGY>
47.2752

> <PUBCHEM_FEATURE_SELFOVERLAP>
30.539

> <PUBCHEM_SHAPE_FINGERPRINT>
11045977 3 18413385440847661161
11089746 13 14549008875495233432
11128504 68 15864077572006115820
11370993 144 18343581863063842037
11524674 6 17918270939987553495
11552529 35 17272279417084443799
11796584 16 18260823761428829506
12596602 18 17989208183115878963
12616971 3 17489581281802332940
12633257 1 15769771381375557809
12670546 177 13118001102041856369
13103583 49 17560528394976663531
13402501 40 18409451379516894170
13551218 46 18411983593972406143
14251751 18 18333454248280168030
14251757 5 14274038669968131817
14251764 18 17703787042146109653
14341114 176 18344145882633048604
14420673 8 18410016503055940171
14528608 73 8214142958298265648
14556957 393 14201398248921163463
14739800 52 11455609825148564318
14950920 106 17488751215211609523
15196674 1 18412542141072321295
15348495 7 18341331175456860753
15475509 84 17346323669967990952
15537594 2 17385720279697599819
15799311 1 18262537964570783966
15880784 105 18409735101093206377
16110190 28 18340490057635748223
17349148 13 15864067654895311684
17780758 139 18343866615316767281
17844677 252 18408326574853170396
1813 80 17458060495188996661
19141452 34 18343017817703992951
193927 3 17749677393208683891
19958102 18 15068618288299885234
20157964 124 8358261449278046072
20621476 21 18261401047967767370
21150785 3 17023193712945871558
21267235 1 18130227048423058278
21315759 148 18337953505727166729
21315763 191 18261118465068387701
21403212 168 18341901741394658633
21623969 137 18202285797005699446
22950370 63 18335424590297193621
23402539 116 15213295292378784821
23522609 53 18044406913488588348
23559900 14 18410003338796509752
239999 70 18408039611709296626
25122255 55 18335993007675372082
26918003 58 18343298150019007461
2838139 119 9943809967060859218
3004659 81 18260267439158493996
312425 54 18410858759074560899
351380 3 16950282910078594601
4015057 19 18129361835297929741
4073 2 18334859437056795440
441001 317 10952052251886542381
465052 167 18343867693575137150
5104073 3 18342172293135522584
54583773 228 18334585651506777550
5924683 9 17774151452902511903
636775 8 18269002999624679326
7495541 125 18408040719658105580
8863177 126 18409168839646432322
9981440 41 11959737088127348589
999808 66 17822306694960337651

> <PUBCHEM_SHAPE_MULTIPOLES>
452.16
15.99
2.43
1.06
6.28
1.22
0.11
6.86
-3.84
-1.17
-0.33
-0.72
-0.01
1.42

> <PUBCHEM_SHAPE_SELFOVERLAP>
991.954

> <PUBCHEM_SHAPE_VOLUME>
246

> <PUBCHEM_COORDINATE_TYPE>
2
5
10

$$$$
25166659
  -OEChem-05102415013D

 34 37  0     0  0  0  0  0  0999 V2000
   -2.2128   -2.6306   -0.2688 Cl  0  0  0  0  0  0  0  0  0  0  0  0
   -6.7990    1.4641    0.7761 Cl  0  0  0  0  0  0  0  0  0  0  0  0
   -1.1604    0.5641   -0.9469 N   0  0  0  0  0  0  0  0  0  0  0  0
    6.2706   -0.0835    0.4822 N   0  0  0  0  0  0  0  0  0  0  0  0
   -1.1681    1.5752   -0.0632 N   0  0  0  0  0  0  0  0  0  0  0  0
    0.0776    1.7276    0.3726 N   0  0  0  0  0  0  0  0  0  0  0  0
    6.4197   -1.3994    0.2563 N   0  0  0  0  0  0  0  0  0  0  0  0
   -2.3753    0.1514   -1.6022 C   0  0  0  0  0  0  0  0  0  0  0  0
    2.2722    0.6405   -0.0466 C   0  0  0  0  0  0  0  0  0  0  0  0
    0.8586    0.7963   -0.2535 C   0  0  0  0  0  0  0  0  0  0  0  0
    4.2366   -0.7566    0.0150 C   0  0  0  0  0  0  0  0  0  0  0  0
   -3.4695   -0.2412   -0.6405 C   0  0  0  0  0  0  0  0  0  0  0  0
    4.9841    0.3659    0.3534 C   0  0  0  0  0  0  0  0  0  0  0  0
    0.0869    0.0421   -1.1012 C   0  0  0  0  0  0  0  0  0  0  0  0
    2.8531   -0.6257   -0.1908 C   0  0  0  0  0  0  0  0  0  0  0  0
    3.0464    1.7511    0.2941 C   0  0  0  0  0  0  0  0  0  0  0  0
    4.4248    1.6369    0.5021 C   0  0  0  0  0  0  0  0  0  0  0  0
   -3.4699   -1.4793    0.0021 C   0  0  0  0  0  0  0  0  0  0  0  0
   -4.4988    0.6691   -0.4010 C   0  0  0  0  0  0  0  0  0  0  0  0
    5.1801   -1.8055   -0.0276 C   0  0  0  0  0  0  0  0  0  0  0  0
   -5.5284    0.3414    0.4810 C   0  0  0  0  0  0  0  0  0  0  0  0
   -4.4996   -1.8071    0.8841 C   0  0  0  0  0  0  0  0  0  0  0  0
   -5.5288   -0.8968    1.1236 C   0  0  0  0  0  0  0  0  0  0  0  0
   -2.1491   -0.6670   -2.2953 H   0  0  0  0  0  0  0  0  0  0  0  0
   -2.6913    0.9937   -2.2309 H   0  0  0  0  0  0  0  0  0  0  0  0
    0.2980   -0.7763   -1.7759 H   0  0  0  0  0  0  0  0  0  0  0  0
    2.2685   -1.5052   -0.4446 H   0  0  0  0  0  0  0  0  0  0  0  0
    2.5925    2.7347    0.4015 H   0  0  0  0  0  0  0  0  0  0  0  0
    5.0280    2.4984    0.7656 H   0  0  0  0  0  0  0  0  0  0  0  0
   -4.5001    1.6359   -0.8996 H   0  0  0  0  0  0  0  0  0  0  0  0
    5.0139   -2.8493   -0.2541 H   0  0  0  0  0  0  0  0  0  0  0  0
    7.0929    0.4563    0.7219 H   0  0  0  0  0  0  0  0  0  0  0  0
   -4.5144   -2.7677    1.3928 H   0  0  0  0  0  0  0  0  0  0  0  0
   -6.3248   -1.1656    1.8133 H   0  0  0  0  0  0  0  0  0  0  0  0
  1 18  1  0  0  0  0
  2 21  1  0  0  0  0
  3  5  1  0  0  0  0
  3  8  1  0  0  0  0
  3 14  1  0  0  0  0
  4  7  1  0  0  0  0
  4 13  1  0  0  0  0
  4 32  1  0  0  0  0
  5  6  2  0  0  0  0
  6 10  1  0  0  0  0
  7 20  2  0  0  0  0
  8 12  1  0  0  0  0
  8 24  1  0  0  0  0
  8 25  1  0  0  0  0
  9 10  1  0  0  0  0
  9 15  2  0  0  0  0
  9 16  1  0  0  0  0
 10 14  2  0  0  0  0
 11 13  2  0  0  0  0
 11 15  1  0  0  0  0
 11 20  1  0  0  0  0
 12 18  2  0  0  0  0
 12 19  1  0  0  0  0
 13 17  1  0  0  0  0
 14 26  1  0  0  0  0
 15 27  1  0  0  0  0
 16 17  2  0  0  0  0
 16 28  1  0  0  0  0
 17 29  1  0  0  0  0
 18 22  1  0  0  0  0
 19 21  2  0  0  0  0
 19 30  1  0  0  0  0
 20 31  1  0  0  0  0
 21 23  1  0  0  0  0
 22 23  2  0  0  0  0
 22 33  1  0  0  0  0
 23 34  1  0  0  0  0
M  END
> <PUBCHEM_COMPOUND_CID>
25166659

> <PUBCHEM_CONFORMER_RMSD>
0.6

> <PUBCHEM_CONFORMER_DIVERSEORDER>
1
112
72
44
74
55
56
98
40
103
107
62
128
81
117
41
73
7
69
42
48
127
30
76
36
51
80
86
115
61
92
70
78
83
27
60
20
53
37
46
102
121
129
45
11
39
77
114
71
59
65
68
49
126
125
52
75
99
105
2
88
96
5
14
32
119
123
21
109
33
35
79
95
57
15
54
26
113
34
6
101
120
8
18
118
31
91
82
3
110
24
108
66
106
84
130
90
87
38
28
10
124
67
63
19
23
17
122
94
12
58
97
89
16
100
29
104
25
9
13
50
4
93
111
43
22
116
85
47
64

> <PUBCHEM_MMFF94_PARTIAL_CHARGES>
31
1 -0.18
10 0.17
12 -0.14
13 -0.15
14 -0.3
15 -0.15
16 -0.15
17 -0.15
18 0.18
19 -0.15
2 -0.18
20 0.14
21 0.18
22 -0.15
23 -0.15
26 0.15
27 0.15
28 0.15
29 0.15
3 0.31
30 0.15
31 0.15
32 0.27
33 0.15
34 0.15
4 0.3
5 -0.42
6 -0.23
7 -0.71
8 0.4
9 0.05

> <PUBCHEM_EFFECTIVE_ROTOR_COUNT>
3

> <PUBCHEM_PHARMACOPHORE_FEATURES>
6
1 4 donor
1 7 acceptor
5 3 5 6 10 14 rings
5 4 7 11 13 20 rings
6 12 18 19 21 22 23 rings
6 9 11 13 15 16 17 rings

> <PUBCHEM_HEAVY_ATOM_COUNT>
23

> <PUBCHEM_ATOM_DEF_STEREO_COUNT>
0

> <PUBCHEM_ATOM_UDEF_STEREO_COUNT>
0

> <PUBCHEM_BOND_DEF_STEREO_COUNT>
0

> <PUBCHEM_BOND_UDEF_STEREO_COUNT>
0

> <PUBCHEM_ISOTOPIC_ATOM_COUNT>
0

> <PUBCHEM_COMPONENT_COUNT>
1

> <PUBCHEM_CACTVS_TAUTO_COUNT>
2

> <PUBCHEM_CONFORMER_ID>
0180034300000001

> <PUBCHEM_MMFF94_ENERGY>
45.0838

> <PUBCHEM_FEATURE_SELFOVERLAP>
30.539

> <PUBCHEM_SHAPE_FINGERPRINT>
11089746 13 15626216922918529033
11128504 68 15140683591957109078
11370993 144 18411417353883618701
11405975 8 18342736376907483888
11524674 6 18060418015018671007
11552529 35 17628913727214807911
12107183 9 18412550886195467889
12236239 1 17632572768756932396
12596602 18 18272373109208885267
12616971 3 17989200473559931132
12670546 177 12179840610866080417
12788726 201 17489320675776327960
13402501 40 18334577940674573378
13668630 136 13840264762889468032
13941219 33 18411418388812838879
14123256 10 11241974780475206413
14251757 5 13407375013342052729
14251758 9 17275114920064569500
14251764 18 18202845474478546405
14341114 176 18411981369194833236
14420673 8 18334580122676085403
14617045 38 18040718039071002442
14739800 52 12463292445254680222
14767858 380 12685095890558803641
15142383 8 18130786724815185312
15348495 7 18339923822005854985
15475509 84 17775290434974134192
15537594 2 17095235917535852899
15961568 22 10879994670533803850
16110190 28 18335142033136151119
17780758 139 18411700993777047857
17844677 252 18259988175542016612
1813 80 17022899090177469437
19141452 34 18410291449523910735
19489759 90 13326853344628327653
21150785 3 12685100284747995938
21267235 1 18342739569223466094
21315763 191 17968103040129962223
21403212 168 18411140191808349881
21623969 137 18341897389743968190
22950370 63 18334016133018480821
23035841 295 17967250883978960266
23522609 53 18043560306646407364
23559900 14 18336819875016633080
239999 70 18260265266142484178
26918003 58 18413105065234807284
2767999 5 14692572108992226777
2838139 119 17203324482453234673
3004659 81 18113899364663319514
312425 54 18334294283922470427
34797466 226 16298396751532584542
351380 3 16370442267616028035
4073 2 18187930641917954370
441001 317 11527953361287684903
465052 167 18411983547043900358
5104073 3 18341323504697861898
5207 217 9583513209805637401
5924683 9 17986386901025684223
7226269 152 17917713470591502865
999808 66 17530977899252176387

> <PUBCHEM_SHAPE_MULTIPOLES>
452.16
17.09
2.14
1.01
2.81
0.65
0.17
1.71
-5.47
-0.3
-0.28
-0.93
0
0.3

> <PUBCHEM_SHAPE_SELFOVERLAP>
991.41

> <PUBCHEM_SHAPE_VOLUME>
246.5

> <PUBCHEM_COORDINATE_TYPE>
2
5
10

$$$$
25166867
  -OEChem-05102415013D

 34 37  0     0  0  0  0  0  0999 V2000
   -4.8196    3.5048   -0.1462 Cl  0  0  0  0  0  0  0  0  0  0  0  0
   -5.8283   -1.2877    2.1215 Cl  0  0  0  0  0  0  0  0  0  0  0  0
   -1.0555   -1.0613   -1.0474 N   0  0  0  0  0  0  0  0  0  0  0  0
    6.1805    0.5988    0.5558 N   0  0  0  0  0  0  0  0  0  0  0  0
   -0.9180   -2.1170   -0.2288 N   0  0  0  0  0  0  0  0  0  0  0  0
    0.3328   -2.1088    0.2187 N   0  0  0  0  0  0  0  0  0  0  0  0
    6.1314    1.9341    0.4162 N   0  0  0  0  0  0  0  0  0  0  0  0
   -2.3128   -0.7949   -1.6983 C   0  0  0  0  0  0  0  0  0  0  0  0
    2.3420   -0.6806   -0.0927 C   0  0  0  0  0  0  0  0  0  0  0  0
    0.9697   -1.0325   -0.3338 C   0  0  0  0  0  0  0  0  0  0  0  0
    4.0726    0.9883    0.0934 C   0  0  0  0  0  0  0  0  0  0  0  0
   -3.3315   -0.1515   -0.7904 C   0  0  0  0  0  0  0  0  0  0  0  0
    4.9777   -0.0290    0.3745 C   0  0  0  0  0  0  0  0  0  0  0  0
    2.7266    0.6651   -0.1461 C   0  0  0  0  0  0  0  0  0  0  0  0
    0.1002   -0.3495   -1.1466 C   0  0  0  0  0  0  0  0  0  0  0  0
    3.2718   -1.6823    0.1919 C   0  0  0  0  0  0  0  0  0  0  0  0
    4.6152   -1.3764    0.4327 C   0  0  0  0  0  0  0  0  0  0  0  0
    4.8475    2.1673    0.1349 C   0  0  0  0  0  0  0  0  0  0  0  0
   -4.0268   -0.9267    0.1377 C   0  0  0  0  0  0  0  0  0  0  0  0
   -3.5769    1.2188   -0.8779 C   0  0  0  0  0  0  0  0  0  0  0  0
   -4.5178    1.8139   -0.0375 C   0  0  0  0  0  0  0  0  0  0  0  0
   -4.9677   -0.3316    0.9780 C   0  0  0  0  0  0  0  0  0  0  0  0
   -5.2132    1.0387    0.8905 C   0  0  0  0  0  0  0  0  0  0  0  0
   -2.6978   -1.7454   -2.0879 H   0  0  0  0  0  0  0  0  0  0  0  0
   -2.1142   -0.1618   -2.5717 H   0  0  0  0  0  0  0  0  0  0  0  0
    2.0185    1.4616   -0.3548 H   0  0  0  0  0  0  0  0  0  0  0  0
    0.1895    0.5341   -1.7637 H   0  0  0  0  0  0  0  0  0  0  0  0
    2.9705   -2.7277    0.2290 H   0  0  0  0  0  0  0  0  0  0  0  0
    5.3391   -2.1530    0.6530 H   0  0  0  0  0  0  0  0  0  0  0  0
   -3.8396   -1.9960    0.2022 H   0  0  0  0  0  0  0  0  0  0  0  0
   -3.0325    1.8229   -1.6002 H   0  0  0  0  0  0  0  0  0  0  0  0
    4.5279    3.1868   -0.0285 H   0  0  0  0  0  0  0  0  0  0  0  0
    7.0724    0.1740    0.7767 H   0  0  0  0  0  0  0  0  0  0  0  0
   -5.9472    1.5029    1.5457 H   0  0  0  0  0  0  0  0  0  0  0  0
  1 21  1  0  0  0  0
  2 22  1  0  0  0  0
  3  5  1  0  0  0  0
  3  8  1  0  0  0  0
  3 15  1  0  0  0  0
  4  7  1  0  0  0  0
  4 13  1  0  0  0  0
  4 33  1  0  0  0  0
  5  6  2  0  0  0  0
  6 10  1  0  0  0  0
  7 18  2  0  0  0  0
  8 12  1  0  0  0  0
  8 24  1  0  0  0  0
  8 25  1  0  0  0  0
  9 10  1  0  0  0  0
  9 14  2  0  0  0  0
  9 16  1  0  0  0  0
 10 15  2  0  0  0  0
 11 13  2  0  0  0  0
 11 14  1  0  0  0  0
 11 18  1  0  0  0  0
 12 19  2  0  0  0  0
 12 20  1  0  0  0  0
 13 17  1  0  0  0  0
 14 26  1  0  0  0  0
 15 27  1  0  0  0  0
 16 17  2  0  0  0  0
 16 28  1  0  0  0  0
 17 29  1  0  0  0  0
 18 32  1  0  0  0  0
 19 22  1  0  0  0  0
 19 30  1  0  0  0  0
 20 21  2  0  0  0  0
 20 31  1  0  0  0  0
 21 23  1  0  0  0  0
 22 23  2  0  0  0  0
 23 34  1  0  0  0  0
M  END
> <PUBCHEM_COMPOUND_CID>
25166867

> <PUBCHEM_CONFORMER_RMSD>
0.6

> <PUBCHEM_CONFORMER_DIVERSEORDER>
1
63
22
80
56
15
31
59
11
52
25
83
66
42
29
69
19
28
91
81
64
75
84
65
12
24
62
34
85
30
50
60
36
87
35
72
55
27
39
88
61
43
8
40
26
49
70
53
47
89
86
74
67
58
6
82
46
23
68
2
77
78
14
90
21
7
45
79
71
18
33
16
41
73
3
5
57
48
4
10
9
51
54
13
17
20
37
76
38
32
44

> <PUBCHEM_MMFF94_PARTIAL_CHARGES>
31
1 -0.18
10 0.17
12 -0.14
13 -0.15
14 -0.15
15 -0.3
16 -0.15
17 -0.15
18 0.14
19 -0.15
2 -0.18
20 -0.15
21 0.18
22 0.18
23 -0.15
26 0.15
27 0.15
28 0.15
29 0.15
3 0.31
30 0.15
31 0.15
32 0.15
33 0.27
34 0.15
4 0.3
5 -0.42
6 -0.23
7 -0.71
8 0.4
9 0.05

> <PUBCHEM_EFFECTIVE_ROTOR_COUNT>
3

> <PUBCHEM_PHARMACOPHORE_FEATURES>
6
1 4 donor
1 7 acceptor
5 3 5 6 10 15 rings
5 4 7 11 13 18 rings
6 12 19 20 21 22 23 rings
6 9 11 13 14 16 17 rings

> <PUBCHEM_HEAVY_ATOM_COUNT>
23

> <PUBCHEM_ATOM_DEF_STEREO_COUNT>
0

> <PUBCHEM_ATOM_UDEF_STEREO_COUNT>
0

> <PUBCHEM_BOND_DEF_STEREO_COUNT>
0

> <PUBCHEM_BOND_UDEF_STEREO_COUNT>
0

> <PUBCHEM_ISOTOPIC_ATOM_COUNT>
0

> <PUBCHEM_COMPONENT_COUNT>
1

> <PUBCHEM_CACTVS_TAUTO_COUNT>
2

> <PUBCHEM_CONFORMER_ID>
0180041300000001

> <PUBCHEM_MMFF94_ENERGY>
43.2522

> <PUBCHEM_FEATURE_SELFOVERLAP>
30.539

> <PUBCHEM_SHAPE_FINGERPRINT>
10 15 18261394476656676873
105312 117 15985104136779762253
11370993 144 18188771618063375623
11796584 16 7997698613876180820
12107183 9 18122896534816594410
12596602 18 17821727238740826305
12633257 1 16153440436613164621
12670543 26 12247690360977623854
12788726 201 17275111591607561272
12892183 10 18259990349232999639
13073987 5 18333730208518948634
13167372 99 18341326722113766800
13398642 44 17389393924166838324
13583140 156 16009570456499098454
13785724 45 17764869096558097514
14341114 176 18334862714175007083
14790565 3 18411979178635041692
14848160 23 8214138547298151006
14848178 5 10881396539031464500
15081414 286 18131359600543554976
15183329 4 16200155378568288924
15188451 53 16515687797033085619
15348495 7 18187647964070890787
15510800 12 12180124233490574257
1601671 61 17561361794825745972
16760501 71 18336269062551164940
17844677 252 18411985723753685711
17857418 61 8214151763281766476
18222031 100 14634873058528927015
18785283 64 17386859489645114332
193927 3 12179846056821295144
200 152 8142094168975183630
20281389 69 18131627894006814272
21033648 29 18341600516998148441
21065199 12 18261961743669733695
21315759 148 18187374207219281795
21756936 100 18342450478098822727
22061861 79 10159700191913276442
22956985 138 17252037520635660259
23198884 109 14836125455532825629
25122255 55 10737284610688301273
2838139 119 18201711890775276668
2916195 48 18413668023804458934
3004659 81 10592045747804142852
312425 54 17386008325942559937
392239 28 18188224207686396307
437795 96 18041549235850692117
44062 13 9871461003248672641
465052 167 11530770279928763160
484985 159 11314318213989612149
5104073 3 18114177488906364771
57724786 102 17629209204433041627
633830 44 18341603777010402942
636775 72 18055342794553432472
7495541 125 13406793337784374894
7808743 9 18343577456348171167
90127 26 18339930320328537287
960060 61 12103845683312080386

> <PUBCHEM_SHAPE_MULTIPOLES>
452.16
16.5
2.69
1.24
5.59
1.77
0.09
7.55
6.72
-1.46
0.19
-1.86
-0.42
1.1

> <PUBCHEM_SHAPE_SELFOVERLAP>
990.018

> <PUBCHEM_SHAPE_VOLUME>
248.2

> <PUBCHEM_COORDINATE_TYPE>
2
5
10

$$$$
25166868
  -OEChem-05102415013D

 40 43  0     0  0  0  0  0  0999 V2000
   -4.9813   -2.4963    0.2965 F   0  0  0  0  0  0  0  0  0  0  0  0
   -3.6646   -2.9332   -1.3707 F   0  0  0  0  0  0  0  0  0  0  0  0
   -2.8910   -2.9716    0.6613 F   0  0  0  0  0  0  0  0  0  0  0  0
   -4.5324    3.7923    0.3158 F   0  0  0  0  0  0  0  0  0  0  0  0
   -6.1377    2.4604   -0.2782 F   0  0  0  0  0  0  0  0  0  0  0  0
   -5.3566    2.3805    1.7496 F   0  0  0  0  0  0  0  0  0  0  0  0
    0.1706   -1.3423   -0.4277 N   0  0  0  0  0  0  0  0  0  0  0  0
    0.2825   -1.8189    0.8228 N   0  0  0  0  0  0  0  0  0  0  0  0
    1.5243   -1.5764    1.2276 N   0  0  0  0  0  0  0  0  0  0  0  0
    7.3888    0.9262    0.2345 N   0  0  0  0  0  0  0  0  0  0  0  0
    7.3544    1.9947   -0.5793 N   0  0  0  0  0  0  0  0  0  0  0  0
   -2.1017   -0.4367   -0.7293 C   0  0  0  0  0  0  0  0  0  0  0  0
   -1.0714   -1.4557   -1.1491 C   0  0  0  0  0  0  0  0  0  0  0  0
   -3.3569   -0.8331   -0.2680 C   0  0  0  0  0  0  0  0  0  0  0  0
   -1.7843    0.9193   -0.8091 C   0  0  0  0  0  0  0  0  0  0  0  0
    2.1817   -0.9422    0.2102 C   0  0  0  0  0  0  0  0  0  0  0  0
    3.5521   -0.5129    0.2628 C   0  0  0  0  0  0  0  0  0  0  0  0
   -4.2947    0.1264    0.1135 C   0  0  0  0  0  0  0  0  0  0  0  0
   -3.9775    1.4823    0.0335 C   0  0  0  0  0  0  0  0  0  0  0  0
    1.3344   -0.7829   -0.8574 C   0  0  0  0  0  0  0  0  0  0  0  0
   -2.7222    1.8788   -0.4278 C   0  0  0  0  0  0  0  0  0  0  0  0
    5.2938    1.0139   -0.4078 C   0  0  0  0  0  0  0  0  0  0  0  0
   -3.7182   -2.2794   -0.1737 C   0  0  0  0  0  0  0  0  0  0  0  0
    3.9499    0.6100   -0.4735 C   0  0  0  0  0  0  0  0  0  0  0  0
    6.1840    0.2927    0.3800 C   0  0  0  0  0  0  0  0  0  0  0  0
    4.4670   -1.2191    1.0461 C   0  0  0  0  0  0  0  0  0  0  0  0
    5.8082   -0.8294    1.1216 C   0  0  0  0  0  0  0  0  0  0  0  0
   -4.9794    2.5079    0.4440 C   0  0  0  0  0  0  0  0  0  0  0  0
    6.0784    2.0448   -0.9681 C   0  0  0  0  0  0  0  0  0  0  0  0
   -1.3896   -2.4954   -1.0480 H   0  0  0  0  0  0  0  0  0  0  0  0
   -0.8544   -1.3119   -2.2154 H   0  0  0  0  0  0  0  0  0  0  0  0
   -0.8171    1.2504   -1.1765 H   0  0  0  0  0  0  0  0  0  0  0  0
   -5.2761   -0.1701    0.4752 H   0  0  0  0  0  0  0  0  0  0  0  0
    1.4446   -0.3488   -1.8418 H   0  0  0  0  0  0  0  0  0  0  0  0
   -2.4574    2.9302   -0.4992 H   0  0  0  0  0  0  0  0  0  0  0  0
    3.2533    1.1805   -1.0807 H   0  0  0  0  0  0  0  0  0  0  0  0
    4.1555   -2.0938    1.6142 H   0  0  0  0  0  0  0  0  0  0  0  0
    6.5206   -1.3769    1.7287 H   0  0  0  0  0  0  0  0  0  0  0  0
    5.7713    2.8304   -1.6440 H   0  0  0  0  0  0  0  0  0  0  0  0
    8.2724    0.6801    0.6629 H   0  0  0  0  0  0  0  0  0  0  0  0
  1 23  1  0  0  0  0
  2 23  1  0  0  0  0
  3 23  1  0  0  0  0
  4 28  1  0  0  0  0
  5 28  1  0  0  0  0
  6 28  1  0  0  0  0
  7  8  1  0  0  0  0
  7 13  1  0  0  0  0
  7 20  1  0  0  0  0
  8  9  2  0  0  0  0
  9 16  1  0  0  0  0
 10 11  1  0  0  0  0
 10 25  1  0  0  0  0
 10 40  1  0  0  0  0
 11 29  2  0  0  0  0
 12 13  1  0  0  0  0
 12 14  2  0  0  0  0
 12 15  1  0  0  0  0
 13 30  1  0  0  0  0
 13 31  1  0  0  0  0
 14 18  1  0  0  0  0
 14 23  1  0  0  0  0
 15 21  2  0  0  0  0
 15 32  1  0  0  0  0
 16 17  1  0  0  0  0
 16 20  2  0  0  0  0
 17 24  2  0  0  0  0
 17 26  1  0  0  0  0
 18 19  2  0  0  0  0
 18 33  1  0  0  0  0
 19 21  1  0  0  0  0
 19 28  1  0  0  0  0
 20 34  1  0  0  0  0
 21 35  1  0  0  0  0
 22 24  1  0  0  0  0
 22 25  2  0  0  0  0
 22 29  1  0  0  0  0
 24 36  1  0  0  0  0
 25 27  1  0  0  0  0
 26 27  2  0  0  0  0
 26 37  1  0  0  0  0
 27 38  1  0  0  0  0
 29 39  1  0  0  0  0
M  END
> <PUBCHEM_COMPOUND_CID>
25166868

> <PUBCHEM_CONFORMER_RMSD>
0.8

> <PUBCHEM_CONFORMER_DIVERSEORDER>
5
22
48
19
42
44
32
26
34
24
37
15
39
52
38
46
8
29
31
27
49
11
14
45
50
7
40
28
33
25
4
21
20
36
41
35
17
13
47
51
10
43
9
3
6
23
30
12
1
16
2
18

> <PUBCHEM_MMFF94_PARTIAL_CHARGES>
37
1 -0.34
10 0.3
11 -0.71
12 -0.14
13 0.4
14 -0.14
15 -0.15
16 0.17
17 0.05
18 -0.15
19 -0.14
2 -0.34
20 -0.3
21 -0.15
23 1.16
24 -0.15
25 -0.15
26 -0.15
27 -0.15
28 1.16
29 0.14
3 -0.34
32 0.15
33 0.15
34 0.15
35 0.15
36 0.15
37 0.15
38 0.15
39 0.15
4 -0.34
40 0.27
5 -0.34
6 -0.34
7 0.31
8 -0.42
9 -0.23

> <PUBCHEM_EFFECTIVE_ROTOR_COUNT>
5

> <PUBCHEM_PHARMACOPHORE_FEATURES>
6
1 10 donor
1 11 acceptor
5 10 11 22 25 29 rings
5 7 8 9 16 20 rings
6 12 14 15 18 19 21 rings
6 17 22 24 25 26 27 rings

> <PUBCHEM_HEAVY_ATOM_COUNT>
29

> <PUBCHEM_ATOM_DEF_STEREO_COUNT>
0

> <PUBCHEM_ATOM_UDEF_STEREO_COUNT>
0

> <PUBCHEM_BOND_DEF_STEREO_COUNT>
0

> <PUBCHEM_BOND_UDEF_STEREO_COUNT>
0

> <PUBCHEM_ISOTOPIC_ATOM_COUNT>
0

> <PUBCHEM_COMPONENT_COUNT>
1

> <PUBCHEM_CACTVS_TAUTO_COUNT>
2

> <PUBCHEM_CONFORMER_ID>
0180041400000005

> <PUBCHEM_MMFF94_ENERGY>
50.5903

> <PUBCHEM_FEATURE_SELFOVERLAP>
30.539

> <PUBCHEM_SHAPE_FINGERPRINT>
10 15 18334020467067821913
10319688 45 17984414419899284567
10411042 1 17908139129765025351
105312 117 17274816956787453166
10595046 47 18335697286840954890
11101153 10 18193554695090965437
11578080 2 17345772793515537783
12107183 9 18119518835402073922
12236239 1 18408600379840553894
12390115 104 18342747307646822399
12616971 3 17167869659877124830
12895837 130 18409173220412879801
13073987 5 18335698373625793570
13167372 99 18408884032402529000
14202776 33 18200590440095831350
14341114 328 18333728005395650930
14394314 77 18334861645140744340
14849402 71 17969508289617212380
14856354 85 18198626729345572759
15188451 53 11097858510088853456
15289351 153 18265605676314730536
15338160 23 18410859875908540481
1577012 14 18334010602039444316
15778101 99 18412829066510119700
16110190 28 18334859394139361988
16126227 98 18342745074992108537
17844677 252 18409171017638079838
17980427 23 18114185258565572014
19377110 9 18040441013716937146
19958102 18 11599715151831912361
21033648 29 17774705537848002010
21065198 48 18333724728536414958
21236236 1 18408602590947059455
21302155 148 18411142406967483013
21304303 282 12686740708858046439
21756936 100 18341887515571709974
21796203 349 17541968797957551811
22122407 14 18335149738635073520
23522609 53 17895774953943020044
23569943 247 16662026064634886858
2747138 104 18120938566521324947
3663271 9 18187362143083070882
4073 2 18259707813563150850
4144715 1 18409739469170521690
4258327 124 18409733954680271053
5104073 3 18259976090162896226
5718773 13 11170211872749937377
5969126 39 18129933611746638199
6327066 14 18339074870818814829
636775 72 18123467444204719424
6376802 137 17607541416373976147
6700243 42 17625576687960085366
7808743 9 18340484478573411953
86090 222 14635998817334391656

> <PUBCHEM_SHAPE_MULTIPOLES>
528.26
18.55
3.39
1.1
19.28
0.84
0.09
11.76
1.93
-5.94
0.23
-0.02
-0.1
-2.5

> <PUBCHEM_SHAPE_SELFOVERLAP>
1183.1

> <PUBCHEM_SHAPE_VOLUME>
282.6

> <PUBCHEM_COORDINATE_TYPE>
2
5
10

$$$$
25164884
  -OEChem-05102415013D

 38 41  0     0  0  0  0  0  0999 V2000
   -5.5823   -2.0069    0.3900 O   0  0  0  0  0  0  0  0  0  0  0  0
   -1.6125    1.2192   -0.4926 N   0  0  0  0  0  0  0  0  0  0  0  0
   -1.3811    2.1361    0.4610 N   0  0  0  0  0  0  0  0  0  0  0  0
   -0.0935    2.0585    0.7785 N   0  0  0  0  0  0  0  0  0  0  0  0
    5.7089   -0.6674    0.1231 N   0  0  0  0  0  0  0  0  0  0  0  0
    5.6262   -1.9650   -0.2152 N   0  0  0  0  0  0  0  0  0  0  0  0
   -3.9113    0.2866   -0.1277 C   0  0  0  0  0  0  0  0  0  0  0  0
   -3.3383   -1.0942    0.2111 C   0  0  0  0  0  0  0  0  0  0  0  0
   -5.3148    0.1347   -0.7254 C   0  0  0  0  0  0  0  0  0  0  0  0
   -2.9888    1.0483   -1.0753 C   0  0  0  0  0  0  0  0  0  0  0  0
   -4.3241   -1.8940    1.0540 C   0  0  0  0  0  0  0  0  0  0  0  0
   -6.1900   -0.7344    0.1696 C   0  0  0  0  0  0  0  0  0  0  0  0
   -0.4827    0.5307   -0.8114 C   0  0  0  0  0  0  0  0  0  0  0  0
    0.4711    1.0802    0.0082 C   0  0  0  0  0  0  0  0  0  0  0  0
    1.8456    0.6971    0.0582 C   0  0  0  0  0  0  0  0  0  0  0  0
    2.2027   -0.6241   -0.2391 C   0  0  0  0  0  0  0  0  0  0  0  0
    3.5605   -0.9806   -0.1851 C   0  0  0  0  0  0  0  0  0  0  0  0
    2.8136    1.6428    0.4012 C   0  0  0  0  0  0  0  0  0  0  0  0
    4.5039   -0.0190    0.1594 C   0  0  0  0  0  0  0  0  0  0  0  0
    4.1692    1.3032    0.4593 C   0  0  0  0  0  0  0  0  0  0  0  0
    4.3177   -2.1518   -0.4018 C   0  0  0  0  0  0  0  0  0  0  0  0
   -3.9988    0.8539    0.8095 H   0  0  0  0  0  0  0  0  0  0  0  0
   -2.3949   -1.0141    0.7606 H   0  0  0  0  0  0  0  0  0  0  0  0
   -3.1391   -1.6424   -0.7187 H   0  0  0  0  0  0  0  0  0  0  0  0
   -5.2359   -0.3386   -1.7125 H   0  0  0  0  0  0  0  0  0  0  0  0
   -5.7805    1.1163   -0.8663 H   0  0  0  0  0  0  0  0  0  0  0  0
   -3.3505    2.0628   -1.2761 H   0  0  0  0  0  0  0  0  0  0  0  0
   -2.8486    0.5272   -2.0291 H   0  0  0  0  0  0  0  0  0  0  0  0
   -3.9403   -2.9065    1.2147 H   0  0  0  0  0  0  0  0  0  0  0  0
   -4.4708   -1.4357    2.0392 H   0  0  0  0  0  0  0  0  0  0  0  0
   -6.3808   -0.2488    1.1339 H   0  0  0  0  0  0  0  0  0  0  0  0
   -7.1583   -0.9062   -0.3111 H   0  0  0  0  0  0  0  0  0  0  0  0
   -0.4680   -0.2471   -1.5625 H   0  0  0  0  0  0  0  0  0  0  0  0
    1.4662   -1.3794   -0.4976 H   0  0  0  0  0  0  0  0  0  0  0  0
    2.5338    2.6700    0.6278 H   0  0  0  0  0  0  0  0  0  0  0  0
    4.9227    2.0364    0.7245 H   0  0  0  0  0  0  0  0  0  0  0  0
    3.9684   -3.1337   -0.6882 H   0  0  0  0  0  0  0  0  0  0  0  0
    6.6244   -0.2818    0.3182 H   0  0  0  0  0  0  0  0  0  0  0  0
  1 11  1  0  0  0  0
  1 12  1  0  0  0  0
  2  3  1  0  0  0  0
  2 10  1  0  0  0  0
  2 13  1  0  0  0  0
  3  4  2  0  0  0  0
  4 14  1  0  0  0  0
  5  6  1  0  0  0  0
  5 19  1  0  0  0  0
  5 38  1  0  0  0  0
  6 21  2  0  0  0  0
  7  8  1  0  0  0  0
  7  9  1  0  0  0  0
  7 10  1  0  0  0  0
  7 22  1  0  0  0  0
  8 11  1  0  0  0  0
  8 23  1  0  0  0  0
  8 24  1  0  0  0  0
  9 12  1  0  0  0  0
  9 25  1  0  0  0  0
  9 26  1  0  0  0  0
 10 27  1  0  0  0  0
 10 28  1  0  0  0  0
 11 29  1  0  0  0  0
 11 30  1  0  0  0  0
 12 31  1  0  0  0  0
 12 32  1  0  0  0  0
 13 14  2  0  0  0  0
 13 33  1  0  0  0  0
 14 15  1  0  0  0  0
 15 16  2  0  0  0  0
 15 18  1  0  0  0  0
 16 17  1  0  0  0  0
 16 34  1  0  0  0  0
 17 19  2  0  0  0  0
 17 21  1  0  0  0  0
 18 20  2  0  0  0  0
 18 35  1  0  0  0  0
 19 20  1  0  0  0  0
 20 36  1  0  0  0  0
 21 37  1  0  0  0  0
M  END
> <PUBCHEM_COMPOUND_CID>
25164884

> <PUBCHEM_CONFORMER_RMSD>
0.6

> <PUBCHEM_CONFORMER_DIVERSEORDER>
1
93
33
36
115
65
108
6
114
48
118
26
82
122
104
69
105
13
59
121
25
94
8
60
75
35
21
123
88
101
57
50
116
61
119
10
95
90
78
89
80
117
68
67
11
14
109
77
28
111
24
45
71
96
74
18
103
100
83
64
20
22
112
46
12
17
62
9
102
30
92
4
19
44
47
40
98
81
106
99
86
79
52
41
42
107
56
84
66
53
27
87
3
63
15
70
29
54
31
2
23
76
73
43
39
85
110
7
49
91
72
97
38
58
51
32
16
120
5
113
34
55
37

> <PUBCHEM_MMFF94_PARTIAL_CHARGES>
23
1 -0.56
10 0.26
11 0.28
12 0.28
13 -0.3
14 0.17
15 0.05
16 -0.15
18 -0.15
19 -0.15
2 0.31
20 -0.15
21 0.14
3 -0.42
33 0.15
34 0.15
35 0.15
36 0.15
37 0.15
38 0.27
4 -0.23
5 0.3
6 -0.71

> <PUBCHEM_EFFECTIVE_ROTOR_COUNT>
4.2

> <PUBCHEM_PHARMACOPHORE_FEATURES>
7
1 1 acceptor
1 5 donor
1 6 acceptor
5 2 3 4 13 14 rings
5 5 6 17 19 21 rings
6 1 7 8 9 11 12 rings
6 15 16 17 18 19 20 rings

> <PUBCHEM_HEAVY_ATOM_COUNT>
21

> <PUBCHEM_ATOM_DEF_STEREO_COUNT>
0

> <PUBCHEM_ATOM_UDEF_STEREO_COUNT>
0

> <PUBCHEM_BOND_DEF_STEREO_COUNT>
0

> <PUBCHEM_BOND_UDEF_STEREO_COUNT>
0

> <PUBCHEM_ISOTOPIC_ATOM_COUNT>
0

> <PUBCHEM_COMPONENT_COUNT>
1

> <PUBCHEM_CACTVS_TAUTO_COUNT>
2

> <PUBCHEM_CONFORMER_ID>
017FFC5400000001

> <PUBCHEM_MMFF94_ENERGY>
35.9385

> <PUBCHEM_FEATURE_SELFOVERLAP>
35.614

> <PUBCHEM_SHAPE_FINGERPRINT>
10835480 77 18337380617468127949
11128504 68 15647058174254624438
11796584 16 18113609097682864923
12516196 113 18273213123160020553
12596602 18 15984814986791743639
12633257 1 15913323623972197137
12760667 363 18342457024214245215
13103583 49 17774737436696683827
13402501 40 18408887347553467691
13533116 47 18201719582602566792
13544653 18 18411983580818199557
13551218 46 18341896311902368751
13685833 64 18335986445703724523
13955234 65 18129091385565552520
14216079 64 18335421301243963739
14251751 18 18260269654860803463
14341114 176 18412827996952623116
14350574 20 18408885118607294308
14386348 63 18408885157161721031
14617045 38 17967533450537137083
146900 427 17417245567452532416
14848160 23 18408601470160834423
15196674 1 18410292523086029127
15238133 3 13470687074902210458
15352361 1 18410294718046529939
15537594 2 18060136591570342692
15880784 105 18271809068444631163
17492 89 18127692626401997982
17844677 252 18410016528572692437
17870717 6 17676203577045034439
17959699 21 9079111159536189830
1813 80 17386001806034563525
18222031 100 17385723591048910508
193927 3 18272940379878086108
19784866 240 18335708234554044653
200 152 18273209777021969552
20028762 73 18273211980704910766
20261772 1 17917988391010230878
20374829 77 18186799188713219643
20403669 9 18412550898727195095
20621476 21 17895486920419457387
20645477 70 18410571778049951014
21033650 10 16805881771512552045
21150785 3 17458070365651336774
21267235 1 18201722813309393398
21279426 13 18336262354202197143
21623969 137 18202283602177203998
21682296 61 18200880577900472743
221490 88 18411418402066914816
2215653 11 18336817655072013551
22393880 68 17968086474166606414
22950370 63 18412547634667977529
23402539 116 14996280288589716853
23559900 14 18334850636875040525
239999 70 18333729139620386674
25122255 55 18408611348475170203
26918003 58 18411978044426039341
2838139 119 9367349202067660819
2871803 45 18187362121054339722
3004659 81 18113335318865516248
3089732 80 18408608062719914651
314194 84 18130781291470228053
329604 57 18410296908558991708
33382 64 18411703179335211354
3421961 26 18342455997184857472
4073 2 18261112980289642809
4214541 1 18409165476877053981
4325135 7 18113903801359424436
465052 167 18273498970487298318
5104073 3 18130219351282683680
5283173 99 18260822653702398301
5718773 13 18190737541028890194
59682541 35 18201143418142532562
59755656 215 18041274392439888539
59755656 520 18119525428404057629
636775 8 18269848541040508558
7495541 125 18410012139643058388
7970288 3 17614837419296672266
8863177 126 18410856606921859811

> <PUBCHEM_SHAPE_MULTIPOLES>
401.4
14.98
2.27
0.86
5.29
0.34
-0.02
9.04
0.43
-0.58
0.33
0.49
-0.04
1.46

> <PUBCHEM_SHAPE_SELFOVERLAP>
879.129

> <PUBCHEM_SHAPE_VOLUME>
218.7

> <PUBCHEM_COORDINATE_TYPE>
2
5
10

$$$$
25166655
  -OEChem-05102415023D

 40 43  0     0  0  0  0  0  0999 V2000
   -1.1009    0.8997   -0.8979 N   0  0  0  0  0  0  0  0  0  0  0  0
   -1.0739    1.7543    0.1376 N   0  0  0  0  0  0  0  0  0  0  0  0
    0.1675    1.7619    0.6106 N   0  0  0  0  0  0  0  0  0  0  0  0
    6.2472   -0.4002    0.5159 N   0  0  0  0  0  0  0  0  0  0  0  0
    6.3289   -1.6691    0.0820 N   0  0  0  0  0  0  0  0  0  0  0  0
   -2.3207    0.6692   -1.6290 C   0  0  0  0  0  0  0  0  0  0  0  0
   -3.4574    0.1913   -0.7598 C   0  0  0  0  0  0  0  0  0  0  0  0
   -3.5273   -1.1354   -0.3348 C   0  0  0  0  0  0  0  0  0  0  0  0
    2.3084    0.6306    0.0530 C   0  0  0  0  0  0  0  0  0  0  0  0
    0.9107    0.8996   -0.1466 C   0  0  0  0  0  0  0  0  0  0  0  0
   -4.4484    1.0975   -0.3825 C   0  0  0  0  0  0  0  0  0  0  0  0
    0.1191    0.3377   -1.1166 C   0  0  0  0  0  0  0  0  0  0  0  0
   -4.5882   -1.5558    0.4675 C   0  0  0  0  0  0  0  0  0  0  0  0
   -5.5793   -0.6496    0.8445 C   0  0  0  0  0  0  0  0  0  0  0  0
    4.1909   -0.8700   -0.0840 C   0  0  0  0  0  0  0  0  0  0  0  0
    2.8220   -0.6275   -0.2859 C   0  0  0  0  0  0  0  0  0  0  0  0
    4.9908    0.1380    0.4427 C   0  0  0  0  0  0  0  0  0  0  0  0
   -5.5095    0.6771    0.4195 C   0  0  0  0  0  0  0  0  0  0  0  0
    3.1342    1.6252    0.5802 C   0  0  0  0  0  0  0  0  0  0  0  0
   -2.4771   -2.1229   -0.7260 C   0  0  0  0  0  0  0  0  0  0  0  0
    4.4989    1.3989    0.7872 C   0  0  0  0  0  0  0  0  0  0  0  0
   -6.7119   -1.0987    1.7044 C   0  0  0  0  0  0  0  0  0  0  0  0
    5.0761   -1.9514   -0.2820 C   0  0  0  0  0  0  0  0  0  0  0  0
   -2.1222   -0.0311   -2.4474 H   0  0  0  0  0  0  0  0  0  0  0  0
   -2.5774    1.6214   -2.1109 H   0  0  0  0  0  0  0  0  0  0  0  0
   -4.4074    2.1346   -0.7044 H   0  0  0  0  0  0  0  0  0  0  0  0
    0.3001   -0.3735   -1.9110 H   0  0  0  0  0  0  0  0  0  0  0  0
   -4.6474   -2.5891    0.8015 H   0  0  0  0  0  0  0  0  0  0  0  0
    2.1961   -1.4192   -0.6873 H   0  0  0  0  0  0  0  0  0  0  0  0
   -6.2758    1.3927    0.7055 H   0  0  0  0  0  0  0  0  0  0  0  0
    2.7327    2.6032    0.8389 H   0  0  0  0  0  0  0  0  0  0  0  0
   -2.3323   -2.1473   -1.8101 H   0  0  0  0  0  0  0  0  0  0  0  0
   -1.5303   -1.9000   -0.2265 H   0  0  0  0  0  0  0  0  0  0  0  0
   -2.7599   -3.1405   -0.4323 H   0  0  0  0  0  0  0  0  0  0  0  0
    5.1422    2.1703    1.1956 H   0  0  0  0  0  0  0  0  0  0  0  0
    4.8582   -2.9337   -0.6770 H   0  0  0  0  0  0  0  0  0  0  0  0
   -7.5108   -1.5178    1.0846 H   0  0  0  0  0  0  0  0  0  0  0  0
   -6.3840   -1.8607    2.4197 H   0  0  0  0  0  0  0  0  0  0  0  0
   -7.1224   -0.2676    2.2880 H   0  0  0  0  0  0  0  0  0  0  0  0
    7.0919    0.0451    0.8520 H   0  0  0  0  0  0  0  0  0  0  0  0
  1  2  1  0  0  0  0
  1  6  1  0  0  0  0
  1 12  1  0  0  0  0
  2  3  2  0  0  0  0
  3 10  1  0  0  0  0
  4  5  1  0  0  0  0
  4 17  1  0  0  0  0
  4 40  1  0  0  0  0
  5 23  2  0  0  0  0
  6  7  1  0  0  0  0
  6 24  1  0  0  0  0
  6 25  1  0  0  0  0
  7  8  2  0  0  0  0
  7 11  1  0  0  0  0
  8 13  1  0  0  0  0
  8 20  1  0  0  0  0
  9 10  1  0  0  0  0
  9 16  2  0  0  0  0
  9 19  1  0  0  0  0
 10 12  2  0  0  0  0
 11 18  2  0  0  0  0
 11 26  1  0  0  0  0
 12 27  1  0  0  0  0
 13 14  2  0  0  0  0
 13 28  1  0  0  0  0
 14 18  1  0  0  0  0
 14 22  1  0  0  0  0
 15 16  1  0  0  0  0
 15 17  2  0  0  0  0
 15 23  1  0  0  0  0
 16 29  1  0  0  0  0
 17 21  1  0  0  0  0
 18 30  1  0  0  0  0
 19 21  2  0  0  0  0
 19 31  1  0  0  0  0
 20 32  1  0  0  0  0
 20 33  1  0  0  0  0
 20 34  1  0  0  0  0
 21 35  1  0  0  0  0
 22 37  1  0  0  0  0
 22 38  1  0  0  0  0
 22 39  1  0  0  0  0
 23 36  1  0  0  0  0
M  END
> <PUBCHEM_COMPOUND_CID>
25166655

> <PUBCHEM_CONFORMER_RMSD>
0.6

> <PUBCHEM_CONFORMER_DIVERSEORDER>
1
6
69
74
30
85
24
60
79
86
54
77
80
35
71
89
75
84
25
90
45
27
31
49
81
66
13
29
52
40
92
39
57
32
53
83
59
82
19
9
88
28
8
10
61
73
5
93
41
70
91
47
51
64
2
42
67
94
34
17
37
16
76
3
43
72
65
56
87
20
68
15
26
62
63
33
38
50
58
48
12
18
22
11
23
36
21
7
44
55
46
14
4
78

> <PUBCHEM_MMFF94_PARTIAL_CHARGES>
31
1 0.31
10 0.17
11 -0.15
12 -0.3
13 -0.15
14 -0.14
16 -0.15
17 -0.15
18 -0.15
19 -0.15
2 -0.42
20 0.14
21 -0.15
22 0.14
23 0.14
26 0.15
27 0.15
28 0.15
29 0.15
3 -0.23
30 0.15
31 0.15
35 0.15
36 0.15
4 0.3
40 0.27
5 -0.71
6 0.4
7 -0.14
8 -0.14
9 0.05

> <PUBCHEM_EFFECTIVE_ROTOR_COUNT>
3

> <PUBCHEM_PHARMACOPHORE_FEATURES>
6
1 4 donor
1 5 acceptor
5 1 2 3 10 12 rings
5 4 5 15 17 23 rings
6 7 8 11 13 14 18 rings
6 9 15 16 17 19 21 rings

> <PUBCHEM_HEAVY_ATOM_COUNT>
23

> <PUBCHEM_ATOM_DEF_STEREO_COUNT>
0

> <PUBCHEM_ATOM_UDEF_STEREO_COUNT>
0

> <PUBCHEM_BOND_DEF_STEREO_COUNT>
0

> <PUBCHEM_BOND_UDEF_STEREO_COUNT>
0

> <PUBCHEM_ISOTOPIC_ATOM_COUNT>
0

> <PUBCHEM_COMPONENT_COUNT>
1

> <PUBCHEM_CACTVS_TAUTO_COUNT>
2

> <PUBCHEM_CONFORMER_ID>
0180033F00000001

> <PUBCHEM_MMFF94_ENERGY>
49.0397

> <PUBCHEM_FEATURE_SELFOVERLAP>
30.539

> <PUBCHEM_SHAPE_FINGERPRINT>
10280341 67 10739301163704747334
11089746 13 14836395934839390145
11128504 68 15647059265466396550
11370993 144 18342736347138118421
11552529 35 17415268709522096055
12236239 1 14490467561044643396
12596602 18 17846500378613828619
12616971 3 17703784838485216444
12633257 1 15913323623861557417
12670546 177 12901544645933316113
13103583 49 17775009024410758755
13288520 33 17530684308220020453
13402501 40 18407761425876415506
13551218 46 18410013247676399767
13668630 136 15936412229978824962
13673619 4 18040437707067022461
13685833 64 18334861623169015483
13941219 33 18273495663046235447
13955234 65 18341604980350396864
14251757 5 14201698501436545209
14251764 18 17775283898138559285
14251764 30 17676209095682546611
14251764 38 10015583942976055122
14341114 176 18343019995537248316
14350574 20 18260829289558187060
14420673 8 18409452466502231723
14528608 73 8286202751343572888
14556957 393 13479134553998598231
14617045 38 18259705575326026722
14739800 52 12031509830827455702
14767858 380 13767929026479443289
14790565 3 17476634756140807896
15238133 3 14836122182641028962
15348495 7 18200871884854510363
15475509 84 17489593329259698952
15537594 2 17458338624491737051
16110190 28 18341332287800714175
17349148 13 15574710270782641852
17780758 139 18344146990776529873
17844677 252 18408325479673394228
1813 80 17312820498138495421
19141452 34 18343299309881834191
19958102 18 14056719024127354224
20105231 36 18059866060777464126
20157964 124 8935006966460852976
20621476 21 18041288728718937139
21150785 3 16153433848597582294
21267235 1 18272934874473895446
21304304 249 17823146773785051067
21403212 168 18201725016770047435
21623969 137 18342460326633081086
22950370 63 18410012169075034684
2303208 19 18187082840821689460
23522609 53 17897757329794076068
23559900 14 18411408527905543808
239999 70 18334573547581730418
26918003 58 18343577430367591764
2767999 5 13039190299080570187
2838139 119 10015589389025858067
33382 64 18261111850892650546
3383291 50 17894917390676716683
351380 3 17240480316700835835
441001 317 10735879482594376551
465052 167 18413109433997197838
5104073 3 17345743221890121066
5385378 56 15123246398576709325
5924683 9 17773307036546574735
7226269 152 17274825723232513545
8863177 126 18334580191073620547
9981440 41 12751242523614405861
999808 66 17895205411003679211

> <PUBCHEM_SHAPE_MULTIPOLES>
448.42
16.99
1.99
1.14
1.7
0.37
0.03
6.93
-6.09
0.62
-0.06
-1.29
-0.01
1.19

> <PUBCHEM_SHAPE_SELFOVERLAP>
997.892

> <PUBCHEM_SHAPE_VOLUME>
242.5

> <PUBCHEM_COORDINATE_TYPE>
2
5
10

$$$$
