25164469
  -OEChem-05102415013D

 36 39  0     0  0  0  0  0  0999 V2000
   -1.8620   -1.0087   -0.8216 N   0  0  0  0  0  0  0  0  0  0  0  0
    5.5503    0.0954    0.4133 N   0  0  0  0  0  0  0  0  0  0  0  0
   -0.5167   -2.1024    0.4519 N   0  0  0  0  0  0  0  0  0  0  0  0
   -1.7811   -2.0258    0.0517 N   0  0  0  0  0  0  0  0  0  0  0  0
    5.6102    1.4199    0.1966 N   0  0  0  0  0  0  0  0  0  0  0  0
    3.8919    3.0015   -0.3298 N   0  0  0  0  0  0  0  0  0  0  0  0
    1.5922   -0.8747   -0.0159 C   0  0  0  0  0  0  0  0  0  0  0  0
    3.4660    0.6430    0.0072 C   0  0  0  0  0  0  0  0  0  0  0  0
    4.2914   -0.4331    0.3140 C   0  0  0  0  0  0  0  0  0  0  0  0
    0.1862   -1.1180   -0.1857 C   0  0  0  0  0  0  0  0  0  0  0  0
    2.0883    0.4268   -0.1627 C   0  0  0  0  0  0  0  0  0  0  0  0
   -3.1179   -0.6695   -1.4406 C   0  0  0  0  0  0  0  0  0  0  0  0
    2.4437   -1.9372    0.2924 C   0  0  0  0  0  0  0  0  0  0  0  0
   -0.6549   -0.4073   -1.0046 C   0  0  0  0  0  0  0  0  0  0  0  0
    3.8174   -1.7380    0.4649 C   0  0  0  0  0  0  0  0  0  0  0  0
    4.3403    1.7495   -0.0497 C   0  0  0  0  0  0  0  0  0  0  0  0
   -4.0394    0.1096   -0.5350 C   0  0  0  0  0  0  0  0  0  0  0  0
   -4.7592   -0.5498    0.4617 C   0  0  0  0  0  0  0  0  0  0  0  0
   -4.1711    1.4892   -0.6934 C   0  0  0  0  0  0  0  0  0  0  0  0
   -5.6107    0.1704    1.2995 C   0  0  0  0  0  0  0  0  0  0  0  0
   -5.0225    2.2093    0.1446 C   0  0  0  0  0  0  0  0  0  0  0  0
   -5.7423    1.5498    1.1410 C   0  0  0  0  0  0  0  0  0  0  0  0
    1.4390    1.2668   -0.3915 H   0  0  0  0  0  0  0  0  0  0  0  0
   -3.5985   -1.6027   -1.7598 H   0  0  0  0  0  0  0  0  0  0  0  0
   -2.9025   -0.1048   -2.3558 H   0  0  0  0  0  0  0  0  0  0  0  0
    2.0556   -2.9483    0.4020 H   0  0  0  0  0  0  0  0  0  0  0  0
   -0.5162    0.4298   -1.6752 H   0  0  0  0  0  0  0  0  0  0  0  0
    4.4806   -2.5620    0.7037 H   0  0  0  0  0  0  0  0  0  0  0  0
    6.4109   -0.3934    0.6257 H   0  0  0  0  0  0  0  0  0  0  0  0
   -4.6708   -1.6248    0.5935 H   0  0  0  0  0  0  0  0  0  0  0  0
   -3.6146    2.0155   -1.4643 H   0  0  0  0  0  0  0  0  0  0  0  0
   -6.1721   -0.3431    2.0746 H   0  0  0  0  0  0  0  0  0  0  0  0
   -5.1248    3.2835    0.0217 H   0  0  0  0  0  0  0  0  0  0  0  0
    2.9158    3.2131   -0.5126 H   0  0  0  0  0  0  0  0  0  0  0  0
    4.5204    3.7977   -0.3713 H   0  0  0  0  0  0  0  0  0  0  0  0
   -6.4053    2.1105    1.7933 H   0  0  0  0  0  0  0  0  0  0  0  0
  1  4  1  0  0  0  0
  1 12  1  0  0  0  0
  1 14  1  0  0  0  0
  2  5  1  0  0  0  0
  2  9  1  0  0  0  0
  2 29  1  0  0  0  0
  3  4  2  0  0  0  0
  3 10  1  0  0  0  0
  5 16  2  0  0  0  0
  6 16  1  0  0  0  0
  6 34  1  0  0  0  0
  6 35  1  0  0  0  0
  7 10  1  0  0  0  0
  7 11  2  0  0  0  0
  7 13  1  0  0  0  0
  8  9  2  0  0  0  0
  8 11  1  0  0  0  0
  8 16  1  0  0  0  0
  9 15  1  0  0  0  0
 10 14  2  0  0  0  0
 11 23  1  0  0  0  0
 12 17  1  0  0  0  0
 12 24  1  0  0  0  0
 12 25  1  0  0  0  0
 13 15  2  0  0  0  0
 13 26  1  0  0  0  0
 14 27  1  0  0  0  0
 15 28  1  0  0  0  0
 17 18  2  0  0  0  0
 17 19  1  0  0  0  0
 18 20  1  0  0  0  0
 18 30  1  0  0  0  0
 19 21  2  0  0  0  0
 19 31  1  0  0  0  0
 20 22  2  0  0  0  0
 20 32  1  0  0  0  0
 21 22  1  0  0  0  0
 21 33  1  0  0  0  0
 22 36  1  0  0  0  0
M  END
> <PUBCHEM_COMPOUND_CID>
25164469

> <PUBCHEM_CONFORMER_RMSD>
0.6

> <PUBCHEM_CONFORMER_DIVERSEORDER>
1
43
45
33
53
58
47
37
30
20
17
11
13
9
34
49
18
28
19
22
57
40
56
32
27
35
8
29
55
42
48
38
50
10
39
54
3
7
6
24
12
16
31
21
26
41
2
51
44
36
52
23
14
46
5
4
15
25

> <PUBCHEM_MMFF94_PARTIAL_CHARGES>
33
1 0.31
10 0.17
11 -0.15
12 0.4
13 -0.15
14 -0.3
15 -0.15
16 0.37
17 -0.14
18 -0.15
19 -0.15
2 0.3
20 -0.15
21 -0.15
22 -0.15
23 0.15
26 0.15
27 0.15
28 0.15
29 0.27
3 -0.23
30 0.15
31 0.15
32 0.15
33 0.15
34 0.4
35 0.4
36 0.15
4 -0.42
5 -0.71
6 -0.88
7 0.05
9 -0.15

> <PUBCHEM_EFFECTIVE_ROTOR_COUNT>
3

> <PUBCHEM_PHARMACOPHORE_FEATURES>
7
1 2 donor
1 6 donor
3 5 6 16 cation
5 1 3 4 10 14 rings
5 2 5 8 9 16 rings
6 17 18 19 20 21 22 rings
6 7 8 9 11 13 15 rings

> <PUBCHEM_HEAVY_ATOM_COUNT>
22

> <PUBCHEM_ATOM_DEF_STEREO_COUNT>
0

> <PUBCHEM_ATOM_UDEF_STEREO_COUNT>
0

> <PUBCHEM_BOND_DEF_STEREO_COUNT>
0

> <PUBCHEM_BOND_UDEF_STEREO_COUNT>
0

> <PUBCHEM_ISOTOPIC_ATOM_COUNT>
0

> <PUBCHEM_COMPONENT_COUNT>
1

> <PUBCHEM_CACTVS_TAUTO_COUNT>
5

> <PUBCHEM_CONFORMER_ID>
017FFAB500000001

> <PUBCHEM_MMFF94_ENERGY>
44.1211

> <PUBCHEM_FEATURE_SELFOVERLAP>
35.614

> <PUBCHEM_SHAPE_FINGERPRINT>
10 15 18041001739325620729
105312 117 16343982516220333981
10595046 47 18270390710981802327
11089746 13 17632285800902068144
11370993 144 18115308869782424267
11405975 8 18261104210383539042
12107183 9 18123462783115014547
12236239 1 18131911563764768362
12596602 18 18113901537848245777
12616971 3 18341605993028676958
12788726 201 17489315135358264985
12839892 36 13190333561149351641
13167372 99 18342457015434523728
13398642 44 17461455898681050516
13785724 45 17836084468746785082
14251764 75 18118974830518064892
14341114 176 18261118430951222793
14790565 3 18411702088466492741
14848178 5 10737283567332858573
15081414 286 18334574629676404972
15163728 17 17346330267121503357
15183329 4 10663826243975046531
15188451 53 15864362384863486155
15348495 7 18113623374017162923
1601671 61 17704069586173985992
16760501 71 18335988652873965225
17349148 13 11819281014239061689
1768 23 17630912455166175937
17844677 252 18338802212897999783
17857418 61 8862948272805581388
17959699 21 18342455967320065648
18785283 64 17024042620904320644
20645477 56 18040426715802672014
21033648 29 17313368020648432853
21120745 212 17698435865378472887
21421861 104 17969206868716965890
21756936 100 18343016718413969495
22061861 79 11239997841388713201
22224240 67 18113903754500107371
22393880 68 11887666239788527085
22956985 138 13336114431963663240
23559900 14 17346321440774559822
2838139 119 17632290160125399937
312425 54 17168151083773391361
3680242 22 18261662706571607360
465052 167 11241974763200398704
5104073 3 18115016519953776058
5283173 99 11743849027774787979
542803 24 18131068242403809287
543358 83 18412541003512571214
57724786 102 17771352968281582027
602551 16 15502665909274968971
633830 44 18341326700175220255
7495541 125 12829492558302048294
76465 3 8286201651789896559
8272917 22 18271807891745288206
90127 26 18337963302790499139
960060 61 12103843475329651210
9996256 80 18342737446934985703

> <PUBCHEM_SHAPE_MULTIPOLES>
422.86
15.03
2.47
1
4.24
0.87
0.05
8.4
-3.8
-1.27
-0.08
1.26
-0.04
-0.79

> <PUBCHEM_SHAPE_SELFOVERLAP>
947.037

> <PUBCHEM_SHAPE_VOLUME>
225

> <PUBCHEM_COORDINATE_TYPE>
2
5
10

$$$$
25164271
  -OEChem-05102415013D

 53 58  0     0  0  0  0  0  0999 V2000
   -1.5932    4.5993    0.6307 N   0  0  0  0  0  0  0  0  0  0  0  0
   -3.9179   -0.0972   -1.1407 N   0  0  0  0  0  0  0  0  0  0  0  0
    4.4764    0.2171   -0.6506 N   0  0  0  0  0  0  0  0  0  0  0  0
   -2.5598    3.7425    0.2617 N   0  0  0  0  0  0  0  0  0  0  0  0
   -1.8278    0.3059   -0.8304 N   0  0  0  0  0  0  0  0  0  0  0  0
    4.2226    1.8075    0.7755 N   0  0  0  0  0  0  0  0  0  0  0  0
   -2.6876   -0.6302   -1.2170 N   0  0  0  0  0  0  0  0  0  0  0  0
    5.0828    0.8948    0.3376 N   0  0  0  0  0  0  0  0  0  0  0  0
   -0.4908    2.7762    0.1113 C   0  0  0  0  0  0  0  0  0  0  0  0
   -0.3279    4.0811    0.5627 C   0  0  0  0  0  0  0  0  0  0  0  0
   -1.8854    2.6344   -0.0532 C   0  0  0  0  0  0  0  0  0  0  0  0
    1.9024    2.5008    0.2196 C   0  0  0  0  0  0  0  0  0  0  0  0
    0.6411    1.9633   -0.0663 C   0  0  0  0  0  0  0  0  0  0  0  0
   -2.5423    1.4275   -0.5130 C   0  0  0  0  0  0  0  0  0  0  0  0
    0.9200    4.6365    0.8537 C   0  0  0  0  0  0  0  0  0  0  0  0
    3.0734    1.6867    0.0446 C   0  0  0  0  0  0  0  0  0  0  0  0
    2.0373    3.8148    0.6717 C   0  0  0  0  0  0  0  0  0  0  0  0
   -3.8805    1.1913   -0.7044 C   0  0  0  0  0  0  0  0  0  0  0  0
   -5.0782   -0.8726   -1.4984 C   0  0  0  0  0  0  0  0  0  0  0  0
    5.1590   -0.8504   -1.3362 C   0  0  0  0  0  0  0  0  0  0  0  0
    3.2145    0.6758   -0.8727 C   0  0  0  0  0  0  0  0  0  0  0  0
   -5.4965   -1.8508   -0.4287 C   0  0  0  0  0  0  0  0  0  0  0  0
    5.1940   -2.1385   -0.5515 C   0  0  0  0  0  0  0  0  0  0  0  0
   -4.8001   -3.0488   -0.2684 C   0  0  0  0  0  0  0  0  0  0  0  0
   -6.5790   -1.5571    0.4007 C   0  0  0  0  0  0  0  0  0  0  0  0
    6.1010   -2.2917    0.4973 C   0  0  0  0  0  0  0  0  0  0  0  0
    4.3191   -3.1760   -0.8738 C   0  0  0  0  0  0  0  0  0  0  0  0
   -5.1862   -3.9531    0.7210 C   0  0  0  0  0  0  0  0  0  0  0  0
   -6.9649   -2.4614    1.3902 C   0  0  0  0  0  0  0  0  0  0  0  0
    6.1331   -3.4822    1.2233 C   0  0  0  0  0  0  0  0  0  0  0  0
    4.3513   -4.3665   -0.1476 C   0  0  0  0  0  0  0  0  0  0  0  0
   -6.2684   -3.6593    1.5502 C   0  0  0  0  0  0  0  0  0  0  0  0
    5.2584   -4.5195    0.9010 C   0  0  0  0  0  0  0  0  0  0  0  0
    0.5342    0.9386   -0.4058 H   0  0  0  0  0  0  0  0  0  0  0  0
    1.0226    5.6575    1.2039 H   0  0  0  0  0  0  0  0  0  0  0  0
    3.0192    4.2309    0.8894 H   0  0  0  0  0  0  0  0  0  0  0  0
   -1.8651    5.5304    0.9204 H   0  0  0  0  0  0  0  0  0  0  0  0
   -4.7677    1.7954   -0.5744 H   0  0  0  0  0  0  0  0  0  0  0  0
   -4.8533   -1.4035   -2.4319 H   0  0  0  0  0  0  0  0  0  0  0  0
   -5.8931   -0.1755   -1.7287 H   0  0  0  0  0  0  0  0  0  0  0  0
    6.1790   -0.5113   -1.5556 H   0  0  0  0  0  0  0  0  0  0  0  0
    4.6679   -0.9984   -2.3057 H   0  0  0  0  0  0  0  0  0  0  0  0
    2.5683    0.2594   -1.6333 H   0  0  0  0  0  0  0  0  0  0  0  0
   -3.9583   -3.2935   -0.9106 H   0  0  0  0  0  0  0  0  0  0  0  0
   -7.1287   -0.6265    0.2881 H   0  0  0  0  0  0  0  0  0  0  0  0
    6.7922   -1.4942    0.7564 H   0  0  0  0  0  0  0  0  0  0  0  0
    3.6060   -3.0691   -1.6869 H   0  0  0  0  0  0  0  0  0  0  0  0
   -4.6447   -4.8864    0.8450 H   0  0  0  0  0  0  0  0  0  0  0  0
   -7.8072   -2.2327    2.0365 H   0  0  0  0  0  0  0  0  0  0  0  0
    6.8402   -3.6020    2.0389 H   0  0  0  0  0  0  0  0  0  0  0  0
    3.6697   -5.1741   -0.3981 H   0  0  0  0  0  0  0  0  0  0  0  0
   -6.5691   -4.3635    2.3205 H   0  0  0  0  0  0  0  0  0  0  0  0
    5.2835   -5.4465    1.4662 H   0  0  0  0  0  0  0  0  0  0  0  0
  1  4  1  0  0  0  0
  1 10  1  0  0  0  0
  1 37  1  0  0  0  0
  2  7  1  0  0  0  0
  2 18  1  0  0  0  0
  2 19  1  0  0  0  0
  3  8  1  0  0  0  0
  3 20  1  0  0  0  0
  3 21  1  0  0  0  0
  4 11  2  0  0  0  0
  5  7  2  0  0  0  0
  5 14  1  0  0  0  0
  6  8  2  0  0  0  0
  6 16  1  0  0  0  0
  9 10  2  0  0  0  0
  9 11  1  0  0  0  0
  9 13  1  0  0  0  0
 10 15  1  0  0  0  0
 11 14  1  0  0  0  0
 12 13  2  0  0  0  0
 12 16  1  0  0  0  0
 12 17  1  0  0  0  0
 13 34  1  0  0  0  0
 14 18  2  0  0  0  0
 15 17  2  0  0  0  0
 15 35  1  0  0  0  0
 16 21  2  0  0  0  0
 17 36  1  0  0  0  0
 18 38  1  0  0  0  0
 19 22  1  0  0  0  0
 19 39  1  0  0  0  0
 19 40  1  0  0  0  0
 20 23  1  0  0  0  0
 20 41  1  0  0  0  0
 20 42  1  0  0  0  0
 21 43  1  0  0  0  0
 22 24  2  0  0  0  0
 22 25  1  0  0  0  0
 23 26  2  0  0  0  0
 23 27  1  0  0  0  0
 24 28  1  0  0  0  0
 24 44  1  0  0  0  0
 25 29  2  0  0  0  0
 25 45  1  0  0  0  0
 26 30  1  0  0  0  0
 26 46  1  0  0  0  0
 27 31  2  0  0  0  0
 27 47  1  0  0  0  0
 28 32  2  0  0  0  0
 28 48  1  0  0  0  0
 29 32  1  0  0  0  0
 29 49  1  0  0  0  0
 30 33  2  0  0  0  0
 30 50  1  0  0  0  0
 31 33  1  0  0  0  0
 31 51  1  0  0  0  0
 32 52  1  0  0  0  0
 33 53  1  0  0  0  0
M  END
> <PUBCHEM_COMPOUND_CID>
25164271

> <PUBCHEM_CONFORMER_RMSD>
1.2

> <PUBCHEM_CONFORMER_DIVERSEORDER>
1
41
25
5
48
64
9
53
66
30
65
7
26
31
50
55
20
62
10
38
27
60
29
18
14
46
54
21
49
58
33
43
39
11
61
59
47
36
51
4
15
28
22
2
17
40
56
23
44
45
8
24
12
57
19
52
13
35
3
42
63
6
34
32
16
37

> <PUBCHEM_MMFF94_PARTIAL_CHARGES>
48
1 0.3
10 -0.15
11 0.29
12 0.05
13 -0.15
14 0.23
15 -0.15
16 0.17
17 -0.15
18 -0.3
19 0.4
2 0.31
20 0.4
21 -0.3
22 -0.14
23 -0.14
24 -0.15
25 -0.15
26 -0.15
27 -0.15
28 -0.15
29 -0.15
3 0.31
30 -0.15
31 -0.15
32 -0.15
33 -0.15
34 0.15
35 0.15
36 0.15
37 0.27
38 0.15
4 -0.71
43 0.15
44 0.15
45 0.15
46 0.15
47 0.15
48 0.15
49 0.15
5 -0.23
50 0.15
51 0.15
52 0.15
53 0.15
6 -0.23
7 -0.42
8 -0.42

> <PUBCHEM_EFFECTIVE_ROTOR_COUNT>
6

> <PUBCHEM_PHARMACOPHORE_FEATURES>
8
1 1 donor
1 4 acceptor
5 1 4 9 10 11 rings
5 2 5 7 14 18 rings
5 3 6 8 16 21 rings
6 22 24 25 28 29 32 rings
6 23 26 27 30 31 33 rings
6 9 10 12 13 15 17 rings

> <PUBCHEM_HEAVY_ATOM_COUNT>
33

> <PUBCHEM_ATOM_DEF_STEREO_COUNT>
0

> <PUBCHEM_ATOM_UDEF_STEREO_COUNT>
0

> <PUBCHEM_BOND_DEF_STEREO_COUNT>
0

> <PUBCHEM_BOND_UDEF_STEREO_COUNT>
0

> <PUBCHEM_ISOTOPIC_ATOM_COUNT>
0

> <PUBCHEM_COMPONENT_COUNT>
1

> <PUBCHEM_CACTVS_TAUTO_COUNT>
2

> <PUBCHEM_CONFORMER_ID>
017FF9EF00000001

> <PUBCHEM_MMFF94_ENERGY>
65.8199

> <PUBCHEM_FEATURE_SELFOVERLAP>
40.692

> <PUBCHEM_SHAPE_FINGERPRINT>
10169797 241 18202844358056445262
10622 236 18190458251989319422
10771551 21 17824815642397397995
10838868 229 18120099644320681019
11103572 155 18408612452782743417
11478447 58 18187355511327896034
117089 54 18411423877886895422
11963148 33 18339915034967133878
12107183 9 18129397033034325553
13383661 66 17970923377897837915
13553639 21 18190456262761235347
13782708 43 18040430036170957615
13911852 28 18341047527706746141
14429380 30 18339356367048731166
14866123 147 18198625437246036337
14904385 45 18410569604865616695
15001296 14 18191865631209933850
15019793 15 18122343746714272815
15250474 111 18122344571995567156
15320291 9 17546156411765116975
15320294 125 17398391932364702932
15728490 83 18410015394938261515
17492 89 18411696561271097604
17909252 39 18411979161592342450
19301676 85 18051963737216277815
19301679 30 18413672409103387201
19319366 153 18122625217885958420
20775530 9 18060135453351787716
260245 28 17684359564805449674
2835820 90 17605851432626515203
3146122 72 10519165672716491043
32027 91 18339635746297321991
3991529 202 18265920093463567419
437795 163 18337391548971746798
439807 62 18334014969309313983
4435113 14 17607254448197189219
4756088 132 18337941415564358203
50009960 94 18190999297462500706
50080093 196 17191486319291866518
5104073 3 17988922245563003384
57366028 249 10013939010544627795
6201320 77 17606150409868588267
6201460 15 17899690159777839066
6422251 121 18335138721811941691
6679774 75 17044335997944118353
6697151 62 18130773582495120469
6700243 42 17241310487119874893
70251023 43 18337674212599857505
7970288 3 18411135848530926673
9831232 110 18190180273042121863
9961470 85 17333084226940376398

> <PUBCHEM_SHAPE_MULTIPOLES>
639.28
18.62
8.24
1.24
7.15
1.03
0.02
-30.39
-2.63
-2.66
-3.4
0.57
-0.64
1.38

> <PUBCHEM_SHAPE_SELFOVERLAP>
1435.516

> <PUBCHEM_SHAPE_VOLUME>
338.6

> <PUBCHEM_COORDINATE_TYPE>
2
5
10

$$$$
49830468
  -OEChem-05102415013D

 49 52  0     0  0  0  0  0  0999 V2000
    5.7463    0.6494    0.6016 O   0  0  0  0  0  0  0  0  0  0  0  0
   -3.4779   -0.6917   -0.9771 N   0  0  0  0  0  0  0  0  0  0  0  0
    3.6027   -3.0132    0.4933 N   0  0  0  0  0  0  0  0  0  0  0  0
    3.4255    0.4131    0.2768 N   0  0  0  0  0  0  0  0  0  0  0  0
    4.2207   -1.8206    0.5164 N   0  0  0  0  0  0  0  0  0  0  0  0
    5.5854    3.2658   -0.2539 N   0  0  0  0  0  0  0  0  0  0  0  0
   -2.8118   -2.4356    0.0919 N   0  0  0  0  0  0  0  0  0  0  0  0
   -3.8950   -1.7731   -0.2988 N   0  0  0  0  0  0  0  0  0  0  0  0
    1.9701   -1.5840    0.1755 C   0  0  0  0  0  0  0  0  0  0  0  0
    2.2506   -2.9408    0.2919 C   0  0  0  0  0  0  0  0  0  0  0  0
   -0.3539   -2.1492   -0.1316 C   0  0  0  0  0  0  0  0  0  0  0  0
    0.6447   -1.1714   -0.0405 C   0  0  0  0  0  0  0  0  0  0  0  0
    3.2243   -0.9535    0.3232 C   0  0  0  0  0  0  0  0  0  0  0  0
   -1.7162   -1.7498   -0.3539 C   0  0  0  0  0  0  0  0  0  0  0  0
    1.2703   -3.9317    0.2045 C   0  0  0  0  0  0  0  0  0  0  0  0
   -0.0442   -3.5053   -0.0110 C   0  0  0  0  0  0  0  0  0  0  0  0
   -4.4272    0.2370   -1.5354 C   0  0  0  0  0  0  0  0  0  0  0  0
   -2.1198   -0.6317   -1.0397 C   0  0  0  0  0  0  0  0  0  0  0  0
   -5.0174    1.1759   -0.5126 C   0  0  0  0  0  0  0  0  0  0  0  0
    4.4006    2.6297    0.3038 C   0  0  0  0  0  0  0  0  0  0  0  0
    4.6347    1.1330    0.4130 C   0  0  0  0  0  0  0  0  0  0  0  0
   -6.0241    0.7308    0.3440 C   0  0  0  0  0  0  0  0  0  0  0  0
   -4.5562    2.4892   -0.4238 C   0  0  0  0  0  0  0  0  0  0  0  0
    5.5986    4.6974    0.0556 C   0  0  0  0  0  0  0  0  0  0  0  0
    5.6497    3.0611   -1.7028 C   0  0  0  0  0  0  0  0  0  0  0  0
   -6.5699    1.5991    1.2896 C   0  0  0  0  0  0  0  0  0  0  0  0
   -5.1019    3.3575    0.5217 C   0  0  0  0  0  0  0  0  0  0  0  0
   -6.1088    2.9124    1.3783 C   0  0  0  0  0  0  0  0  0  0  0  0
    0.4212   -0.1117   -0.1211 H   0  0  0  0  0  0  0  0  0  0  0  0
    1.5131   -4.9843    0.2977 H   0  0  0  0  0  0  0  0  0  0  0  0
   -0.8220   -4.2631   -0.0863 H   0  0  0  0  0  0  0  0  0  0  0  0
   -5.2212   -0.3444   -2.0203 H   0  0  0  0  0  0  0  0  0  0  0  0
   -3.9240    0.7967   -2.3331 H   0  0  0  0  0  0  0  0  0  0  0  0
    4.1649   -3.8452    0.6218 H   0  0  0  0  0  0  0  0  0  0  0  0
   -1.5941    0.1647   -1.5487 H   0  0  0  0  0  0  0  0  0  0  0  0
    2.5781    0.9561    0.1292 H   0  0  0  0  0  0  0  0  0  0  0  0
    4.2220    2.9691    1.3325 H   0  0  0  0  0  0  0  0  0  0  0  0
    3.4996    2.8584   -0.2779 H   0  0  0  0  0  0  0  0  0  0  0  0
   -6.3971   -0.2880    0.2826 H   0  0  0  0  0  0  0  0  0  0  0  0
   -3.7709    2.8482   -1.0837 H   0  0  0  0  0  0  0  0  0  0  0  0
    6.5043    5.1690   -0.3420 H   0  0  0  0  0  0  0  0  0  0  0  0
    4.7272    5.2172   -0.3591 H   0  0  0  0  0  0  0  0  0  0  0  0
    5.6137    4.8573    1.1395 H   0  0  0  0  0  0  0  0  0  0  0  0
    6.5633    3.5088   -2.1103 H   0  0  0  0  0  0  0  0  0  0  0  0
    5.6911    1.9956   -1.9534 H   0  0  0  0  0  0  0  0  0  0  0  0
    4.7917    3.5036   -2.2224 H   0  0  0  0  0  0  0  0  0  0  0  0
   -7.3547    1.2529    1.9559 H   0  0  0  0  0  0  0  0  0  0  0  0
   -4.7426    4.3801    0.5912 H   0  0  0  0  0  0  0  0  0  0  0  0
   -6.5337    3.5886    2.1143 H   0  0  0  0  0  0  0  0  0  0  0  0
  1 21  2  0  0  0  0
  2  8  1  0  0  0  0
  2 17  1  0  0  0  0
  2 18  1  0  0  0  0
  3  5  1  0  0  0  0
  3 10  1  0  0  0  0
  3 34  1  0  0  0  0
  4 13  1  0  0  0  0
  4 21  1  0  0  0  0
  4 36  1  0  0  0  0
  5 13  2  0  0  0  0
  6 20  1  0  0  0  0
  6 24  1  0  0  0  0
  6 25  1  0  0  0  0
  7  8  2  0  0  0  0
  7 14  1  0  0  0  0
  9 10  2  0  0  0  0
  9 12  1  0  0  0  0
  9 13  1  0  0  0  0
 10 15  1  0  0  0  0
 11 12  2  0  0  0  0
 11 14  1  0  0  0  0
 11 16  1  0  0  0  0
 12 29  1  0  0  0  0
 14 18  2  0  0  0  0
 15 16  2  0  0  0  0
 15 30  1  0  0  0  0
 16 31  1  0  0  0  0
 17 19  1  0  0  0  0
 17 32  1  0  0  0  0
 17 33  1  0  0  0  0
 18 35  1  0  0  0  0
 19 22  2  0  0  0  0
 19 23  1  0  0  0  0
 20 21  1  0  0  0  0
 20 37  1  0  0  0  0
 20 38  1  0  0  0  0
 22 26  1  0  0  0  0
 22 39  1  0  0  0  0
 23 27  2  0  0  0  0
 23 40  1  0  0  0  0
 24 41  1  0  0  0  0
 24 42  1  0  0  0  0
 24 43  1  0  0  0  0
 25 44  1  0  0  0  0
 25 45  1  0  0  0  0
 25 46  1  0  0  0  0
 26 28  2  0  0  0  0
 26 47  1  0  0  0  0
 27 28  1  0  0  0  0
 27 48  1  0  0  0  0
 28 49  1  0  0  0  0
M  END
> <PUBCHEM_COMPOUND_CID>
49830468

> <PUBCHEM_CONFORMER_RMSD>
1

> <PUBCHEM_CONFORMER_DIVERSEORDER>
1
102
87
70
88
79
67
34
93
51
84
20
29
16
42
107
119
95
10
73
52
57
68
108
105
111
80
71
40
94
74
49
85
114
96
37
55
23
81
45
50
35
48
62
15
92
33
75
98
86
77
61
5
110
65
76
113
118
115
38
104
109
63
106
17
26
78
58
21
90
69
103
47
100
22
2
116
53
117
18
36
44
83
4
54
41
9
60
27
99
31
28
24
64
82
19
91
101
66
14
56
72
3
39
30
89
46
12
6
25
97
32
59
112
13
11
43
7
8

> <PUBCHEM_MMFF94_PARTIAL_CHARGES>
38
1 -0.57
10 -0.15
11 0.05
12 -0.15
13 0.35
14 0.17
15 -0.15
16 -0.15
17 0.4
18 -0.3
19 -0.14
2 0.31
20 0.33
21 0.57
22 -0.15
23 -0.15
24 0.27
25 0.27
26 -0.15
27 -0.15
28 -0.15
29 0.15
3 0.3
30 0.15
31 0.15
34 0.27
35 0.15
36 0.37
39 0.15
4 -0.49
40 0.15
47 0.15
48 0.15
49 0.15
5 -0.71
6 -0.81
7 -0.23
8 -0.42

> <PUBCHEM_EFFECTIVE_ROTOR_COUNT>
7

> <PUBCHEM_PHARMACOPHORE_FEATURES>
8
1 1 acceptor
1 3 donor
1 4 donor
1 6 cation
5 2 7 8 14 18 rings
5 3 5 9 10 13 rings
6 19 22 23 26 27 28 rings
6 9 10 11 12 15 16 rings

> <PUBCHEM_HEAVY_ATOM_COUNT>
28

> <PUBCHEM_ATOM_DEF_STEREO_COUNT>
0

> <PUBCHEM_ATOM_UDEF_STEREO_COUNT>
0

> <PUBCHEM_BOND_DEF_STEREO_COUNT>
0

> <PUBCHEM_BOND_UDEF_STEREO_COUNT>
0

> <PUBCHEM_ISOTOPIC_ATOM_COUNT>
0

> <PUBCHEM_COMPONENT_COUNT>
1

> <PUBCHEM_CACTVS_TAUTO_COUNT>
24

> <PUBCHEM_CONFORMER_ID>
02F85A4400000001

> <PUBCHEM_MMFF94_ENERGY>
61.7992

> <PUBCHEM_FEATURE_SELFOVERLAP>
40.688

> <PUBCHEM_SHAPE_FINGERPRINT>
100830 2 18409737291189878340
10429389 16 11815614130529455187
11070050 100 17022902294297191930
11135609 201 18339927129494669827
11408170 253 17470179514700207564
11479125 193 18410860966567016817
1200032 147 18187088382110489784
12107183 9 18116972538834825906
12390115 104 18337677532550918326
12422481 6 17240470421323085556
12788726 201 17202766978022388585
13398642 44 18187659023733419789
13885169 86 18411703166851476217
13944108 23 18267591217471112076
14026016 13 18342465871868845177
14251764 75 18411703200815536641
14347329 18 18340197600485840384
14429114 114 18340198695444349209
14664723 55 18043538420284241124
14790565 3 18410854403867212188
14849402 71 18264489486262982986
15081414 286 18051688837265135447
15142526 21 18261110742944569387
16728433 281 17974018542334067108
16760501 71 18410294666886678617
16993089 31 12895064181247052269
1768 23 17559971922203184105
18393751 57 18261117344915574747
19302320 297 18124036719932175041
19438510 23 18187643665193756240
20058555 10 18409727374590010909
20691028 202 18271240505201439425
21307412 95 9582148711143114586
23569914 152 17772498741319174092
245318 6 18187939399135062820
2748736 6 18339630235248126312
437795 171 18262227833541808661
437795 96 17753603547590725277
5047190 36 17823426070269331628
5104073 3 18186796959446683595
5223283 242 17699312983214611742
5364581 5 18335990792463855529
53794403 172 18339647745934858446
550186 72 18050001400786611423
57724786 102 18340202999075062631
5951187 136 18200605713342115454
6034566 193 18337400447067733321
6058803 2 18269533019135758503
636775 72 17836641195698705168
7970288 3 7890730950479277028

> <PUBCHEM_SHAPE_MULTIPOLES>
535.49
17.78
6.14
1.09
6.2
2.29
0.22
23.92
-2.15
-7.08
-0.42
0.74
0.6
-2.9

> <PUBCHEM_SHAPE_SELFOVERLAP>
1167.078

> <PUBCHEM_SHAPE_VOLUME>
294.6

> <PUBCHEM_COORDINATE_TYPE>
2
5
10

$$$$
49830472
  -OEChem-05102415013D

 48 52  0     0  0  0  0  0  0999 V2000
   -5.0612    5.2623    0.3520 F   0  0  0  0  0  0  0  0  0  0  0  0
   -5.3646   -0.9709   -0.3618 O   0  0  0  0  0  0  0  0  0  0  0  0
    3.9807   -0.4896    0.9567 N   0  0  0  0  0  0  0  0  0  0  0  0
   -2.5369   -4.1300   -0.4411 N   0  0  0  0  0  0  0  0  0  0  0  0
   -3.3775   -3.0822   -0.4252 N   0  0  0  0  0  0  0  0  0  0  0  0
   -3.0313   -0.7407   -0.1475 N   0  0  0  0  0  0  0  0  0  0  0  0
    3.6465   -2.3093   -0.1408 N   0  0  0  0  0  0  0  0  0  0  0  0
    4.5869   -1.4543    0.2459 N   0  0  0  0  0  0  0  0  0  0  0  0
   -1.2101   -2.4140   -0.1190 C   0  0  0  0  0  0  0  0  0  0  0  0
   -1.2212   -3.7969   -0.2622 C   0  0  0  0  0  0  0  0  0  0  0  0
    1.1858   -2.5167    0.1331 C   0  0  0  0  0  0  0  0  0  0  0  0
    0.0129   -1.7529    0.0829 C   0  0  0  0  0  0  0  0  0  0  0  0
   -2.5667   -2.0399   -0.2295 C   0  0  0  0  0  0  0  0  0  0  0  0
    2.4478   -1.8613    0.3404 C   0  0  0  0  0  0  0  0  0  0  0  0
   -0.0638   -4.5770   -0.2155 C   0  0  0  0  0  0  0  0  0  0  0  0
    1.1459   -3.9045   -0.0137 C   0  0  0  0  0  0  0  0  0  0  0  0
    4.7413    0.5968    1.5196 C   0  0  0  0  0  0  0  0  0  0  0  0
    2.6389   -0.6992    1.0449 C   0  0  0  0  0  0  0  0  0  0  0  0
    5.1129    1.6531    0.5087 C   0  0  0  0  0  0  0  0  0  0  0  0
   -4.3616   -0.2805   -0.2149 C   0  0  0  0  0  0  0  0  0  0  0  0
    6.1682    1.4320   -0.3762 C   0  0  0  0  0  0  0  0  0  0  0  0
    4.4004    2.8512    0.4587 C   0  0  0  0  0  0  0  0  0  0  0  0
   -4.5469    1.1867   -0.0654 C   0  0  0  0  0  0  0  0  0  0  0  0
    6.5110    2.4088   -1.3110 C   0  0  0  0  0  0  0  0  0  0  0  0
    4.7430    3.8280   -0.4762 C   0  0  0  0  0  0  0  0  0  0  0  0
    5.7985    3.6068   -1.3609 C   0  0  0  0  0  0  0  0  0  0  0  0
   -5.7461    1.6903    0.4388 C   0  0  0  0  0  0  0  0  0  0  0  0
   -3.5218    2.0601   -0.4285 C   0  0  0  0  0  0  0  0  0  0  0  0
   -5.9202    3.0669    0.5795 C   0  0  0  0  0  0  0  0  0  0  0  0
   -3.6958    3.4368   -0.2878 C   0  0  0  0  0  0  0  0  0  0  0  0
   -4.8950    3.9402    0.2162 C   0  0  0  0  0  0  0  0  0  0  0  0
    0.0257   -0.6717    0.1841 H   0  0  0  0  0  0  0  0  0  0  0  0
   -0.0971   -5.6548   -0.3290 H   0  0  0  0  0  0  0  0  0  0  0  0
    2.0588   -4.4957    0.0299 H   0  0  0  0  0  0  0  0  0  0  0  0
    5.6446    0.1737    1.9764 H   0  0  0  0  0  0  0  0  0  0  0  0
    4.1557    1.0308    2.3391 H   0  0  0  0  0  0  0  0  0  0  0  0
    1.9785   -0.0319    1.5817 H   0  0  0  0  0  0  0  0  0  0  0  0
   -2.9274   -5.0538   -0.5791 H   0  0  0  0  0  0  0  0  0  0  0  0
   -2.2967   -0.0625    0.0310 H   0  0  0  0  0  0  0  0  0  0  0  0
    6.7356    0.5058   -0.3452 H   0  0  0  0  0  0  0  0  0  0  0  0
    3.5747    3.0355    1.1408 H   0  0  0  0  0  0  0  0  0  0  0  0
    7.3335    2.2371   -1.9993 H   0  0  0  0  0  0  0  0  0  0  0  0
    4.1879    4.7607   -0.5156 H   0  0  0  0  0  0  0  0  0  0  0  0
    6.0654    4.3675   -2.0887 H   0  0  0  0  0  0  0  0  0  0  0  0
   -6.5555    1.0272    0.7328 H   0  0  0  0  0  0  0  0  0  0  0  0
   -2.5860    1.7151   -0.8577 H   0  0  0  0  0  0  0  0  0  0  0  0
   -6.8531    3.4595    0.9733 H   0  0  0  0  0  0  0  0  0  0  0  0
   -2.9010    4.1180   -0.5774 H   0  0  0  0  0  0  0  0  0  0  0  0
  1 31  1  0  0  0  0
  2 20  2  0  0  0  0
  3  8  1  0  0  0  0
  3 17  1  0  0  0  0
  3 18  1  0  0  0  0
  4  5  1  0  0  0  0
  4 10  1  0  0  0  0
  4 38  1  0  0  0  0
  5 13  2  0  0  0  0
  6 13  1  0  0  0  0
  6 20  1  0  0  0  0
  6 39  1  0  0  0  0
  7  8  2  0  0  0  0
  7 14  1  0  0  0  0
  9 10  2  0  0  0  0
  9 12  1  0  0  0  0
  9 13  1  0  0  0  0
 10 15  1  0  0  0  0
 11 12  2  0  0  0  0
 11 14  1  0  0  0  0
 11 16  1  0  0  0  0
 12 32  1  0  0  0  0
 14 18  2  0  0  0  0
 15 16  2  0  0  0  0
 15 33  1  0  0  0  0
 16 34  1  0  0  0  0
 17 19  1  0  0  0  0
 17 35  1  0  0  0  0
 17 36  1  0  0  0  0
 18 37  1  0  0  0  0
 19 21  2  0  0  0  0
 19 22  1  0  0  0  0
 20 23  1  0  0  0  0
 21 24  1  0  0  0  0
 21 40  1  0  0  0  0
 22 25  2  0  0  0  0
 22 41  1  0  0  0  0
 23 27  2  0  0  0  0
 23 28  1  0  0  0  0
 24 26  2  0  0  0  0
 24 42  1  0  0  0  0
 25 26  1  0  0  0  0
 25 43  1  0  0  0  0
 26 44  1  0  0  0  0
 27 29  1  0  0  0  0
 27 45  1  0  0  0  0
 28 30  2  0  0  0  0
 28 46  1  0  0  0  0
 29 31  2  0  0  0  0
 29 47  1  0  0  0  0
 30 31  1  0  0  0  0
 30 48  1  0  0  0  0
M  END
> <PUBCHEM_COMPOUND_CID>
49830472

> <PUBCHEM_CONFORMER_RMSD>
0.8

> <PUBCHEM_CONFORMER_DIVERSEORDER>
1
50
108
84
43
91
52
99
65
64
55
54
49
79
53
89
48
67
82
45
71
63
124
8
122
15
86
107
85
34
62
88
40
113
81
87
61
132
58
22
75
116
120
100
33
66
72
47
14
27
110
101
80
130
51
36
42
6
77
74
104
28
41
92
69
12
106
96
59
24
83
30
126
25
103
18
102
105
111
73
133
68
29
97
98
16
44
78
127
118
70
123
2
109
17
129
115
3
46
60
93
57
7
121
94
131
76
112
19
37
117
13
38
35
90
39
4
56
128
31
95
125
11
119
26
23
32
5
9
10
114
20
21

> <PUBCHEM_MMFF94_PARTIAL_CHARGES>
45
1 -0.19
10 -0.15
11 0.05
12 -0.15
13 0.35
14 0.17
15 -0.15
16 -0.15
17 0.4
18 -0.3
19 -0.14
2 -0.57
20 0.54
21 -0.15
22 -0.15
23 0.09
24 -0.15
25 -0.15
26 -0.15
27 -0.15
28 -0.15
29 -0.15
3 0.31
30 -0.15
31 0.19
32 0.15
33 0.15
34 0.15
37 0.15
38 0.27
39 0.37
4 0.3
40 0.15
41 0.15
42 0.15
43 0.15
44 0.15
45 0.15
46 0.15
47 0.15
48 0.15
5 -0.71
6 -0.49
7 -0.23
8 -0.42

> <PUBCHEM_EFFECTIVE_ROTOR_COUNT>
6

> <PUBCHEM_PHARMACOPHORE_FEATURES>
8
1 2 acceptor
1 4 donor
1 6 donor
5 3 7 8 14 18 rings
5 4 5 9 10 13 rings
6 19 21 22 24 25 26 rings
6 23 27 28 29 30 31 rings
6 9 10 11 12 15 16 rings

> <PUBCHEM_HEAVY_ATOM_COUNT>
31

> <PUBCHEM_ATOM_DEF_STEREO_COUNT>
0

> <PUBCHEM_ATOM_UDEF_STEREO_COUNT>
0

> <PUBCHEM_BOND_DEF_STEREO_COUNT>
0

> <PUBCHEM_BOND_UDEF_STEREO_COUNT>
0

> <PUBCHEM_ISOTOPIC_ATOM_COUNT>
0

> <PUBCHEM_COMPONENT_COUNT>
1

> <PUBCHEM_CACTVS_TAUTO_COUNT>
24

> <PUBCHEM_CONFORMER_ID>
02F85A4800000001

> <PUBCHEM_MMFF94_ENERGY>
71.7496

> <PUBCHEM_FEATURE_SELFOVERLAP>
40.69

> <PUBCHEM_SHAPE_FINGERPRINT>
100830 2 18261401104182507980
10883706 163 18260822692272539317
10917259 128 18050556637855047616
10917259 69 18409733972514391468
11059845 2 18123435424948553122
11273773 38 18410855421700959272
11410812 94 18120392093307962380
11761917 142 18124868208801210800
11828042 163 18269283361987874236
11828042 53 18265906933605482020
11973864 155 18056501481327892601
12107183 9 18263346041889548946
12173638 115 17907338431897026289
13627167 48 18270983279103179192
13885169 86 18339646646576484489
13944108 23 17980765935190151824
14251764 75 18410859845427135729
14347329 18 18339918329090765362
14790565 3 18410854352031874192
14849402 71 18122061996590214186
14932702 115 18131630114589770912
15274700 147 17396723332970518980
15320467 1 18339076107115677281
15400415 2 18339920407613155049
155225 5 18194963169834487736
16708801 149 18340188713982317993
16990350 14 18410570652758223586
18393751 57 18334299760723691179
19053607 189 18339069389644265761
19302320 297 18192713341104330112
20691028 202 18340201904117066313
21859007 373 17912917577413280472
22033318 11 18041827447210621512
23516275 100 17117183548153664545
23569914 152 10348284561899172894
245318 6 18186814590102498972
24893989 43 11855545746770948909
3146121 3 18412824665382438353
3146122 72 17538263061931399333
437795 96 17898841345390974637
50080093 196 17823129202287761744
5047190 36 18187093848924116532
5047190 48 18408600340352749524
5219985 13 18342173354050804183
53794403 172 18267306430420261023
550186 7 18129384967506321046
550186 72 18050565441651254239
57591035 28 17548714989103847614
5951187 136 18127982914229438590
59584819 99 16613649515872300297
6036956 94 18408878543439937749
6058803 2 18264465413082825498
6176135 31 18266169535403052281
6608658 132 17911226535996342430
6673363 416 17327753193948165172
6700243 42 14259908747888524857
7808743 9 18411131476233659722
9849439 229 18408889512221876527

> <PUBCHEM_SHAPE_MULTIPOLES>
594.94
17.31
7.88
0.95
6.73
0.7
0.05
24.49
-1.02
-5.13
-1.01
1.23
0.41
-2.77

> <PUBCHEM_SHAPE_SELFOVERLAP>
1330.576

> <PUBCHEM_SHAPE_VOLUME>
316.1

> <PUBCHEM_COORDINATE_TYPE>
2
5
10

$$$$
49830471
  -OEChem-05102415023D

 49 53  0     0  0  0  0  0  0999 V2000
   -5.4105   -0.9659   -0.2833 O   0  0  0  0  0  0  0  0  0  0  0  0
    3.9564   -0.7479    0.9482 N   0  0  0  0  0  0  0  0  0  0  0  0
   -2.6568   -4.1819   -0.5211 N   0  0  0  0  0  0  0  0  0  0  0  0
   -3.4729   -3.1170   -0.4537 N   0  0  0  0  0  0  0  0  0  0  0  0
   -3.0705   -0.7970   -0.0863 N   0  0  0  0  0  0  0  0  0  0  0  0
    3.5694   -2.5138   -0.2176 N   0  0  0  0  0  0  0  0  0  0  0  0
    4.5330   -1.6964    0.1925 N   0  0  0  0  0  0  0  0  0  0  0  0
   -1.7108    5.0027   -0.6837 N   0  0  0  0  0  0  0  0  0  0  0  0
   -1.2879   -2.5105   -0.1454 C   0  0  0  0  0  0  0  0  0  0  0  0
   -1.3321   -3.8859   -0.3438 C   0  0  0  0  0  0  0  0  0  0  0  0
    1.1075   -2.6769    0.0755 C   0  0  0  0  0  0  0  0  0  0  0  0
   -0.0481   -1.8857    0.0691 C   0  0  0  0  0  0  0  0  0  0  0  0
   -2.6366   -2.1019   -0.2255 C   0  0  0  0  0  0  0  0  0  0  0  0
    2.3862   -2.0589    0.2947 C   0  0  0  0  0  0  0  0  0  0  0  0
   -0.1923   -4.6930   -0.3415 C   0  0  0  0  0  0  0  0  0  0  0  0
    1.0344   -4.0564   -0.1264 C   0  0  0  0  0  0  0  0  0  0  0  0
    4.7474    0.2976    1.5456 C   0  0  0  0  0  0  0  0  0  0  0  0
    2.6112   -0.9308    1.0430 C   0  0  0  0  0  0  0  0  0  0  0  0
    5.1326    1.3852    0.5738 C   0  0  0  0  0  0  0  0  0  0  0  0
   -4.3906   -0.3048   -0.1202 C   0  0  0  0  0  0  0  0  0  0  0  0
    6.1734    1.1757   -0.3307 C   0  0  0  0  0  0  0  0  0  0  0  0
    4.4478    2.6005    0.5799 C   0  0  0  0  0  0  0  0  0  0  0  0
   -4.5408    1.1590    0.0901 C   0  0  0  0  0  0  0  0  0  0  0  0
    6.5295    2.1814   -1.2295 C   0  0  0  0  0  0  0  0  0  0  0  0
    4.8039    3.6063   -0.3187 C   0  0  0  0  0  0  0  0  0  0  0  0
    5.8446    3.3966   -1.2235 C   0  0  0  0  0  0  0  0  0  0  0  0
   -3.4998    2.0233   -0.2491 C   0  0  0  0  0  0  0  0  0  0  0  0
   -5.7232    1.6683    0.6274 C   0  0  0  0  0  0  0  0  0  0  0  0
   -3.6410    3.3970   -0.0511 C   0  0  0  0  0  0  0  0  0  0  0  0
   -5.8645    3.0420    0.8252 C   0  0  0  0  0  0  0  0  0  0  0  0
   -4.8233    3.9063    0.4861 C   0  0  0  0  0  0  0  0  0  0  0  0
   -2.5758    4.2829   -0.4002 C   0  0  0  0  0  0  0  0  0  0  0  0
   -0.0095   -0.8099    0.2135 H   0  0  0  0  0  0  0  0  0  0  0  0
   -0.2514   -5.7643   -0.4977 H   0  0  0  0  0  0  0  0  0  0  0  0
    1.9340   -4.6693   -0.1168 H   0  0  0  0  0  0  0  0  0  0  0  0
    5.6454   -0.1638    1.9750 H   0  0  0  0  0  0  0  0  0  0  0  0
    4.1803    0.7113    2.3883 H   0  0  0  0  0  0  0  0  0  0  0  0
    1.9718   -0.2710    1.6135 H   0  0  0  0  0  0  0  0  0  0  0  0
   -3.0697   -5.0904   -0.6915 H   0  0  0  0  0  0  0  0  0  0  0  0
   -2.3187   -0.1440    0.1127 H   0  0  0  0  0  0  0  0  0  0  0  0
    6.7195    0.2363   -0.3432 H   0  0  0  0  0  0  0  0  0  0  0  0
    3.6336    2.7760    1.2780 H   0  0  0  0  0  0  0  0  0  0  0  0
    7.3407    2.0188   -1.9331 H   0  0  0  0  0  0  0  0  0  0  0  0
    4.2705    4.5523   -0.3144 H   0  0  0  0  0  0  0  0  0  0  0  0
    6.1219    4.1797   -1.9231 H   0  0  0  0  0  0  0  0  0  0  0  0
   -2.5816    1.6595   -0.7030 H   0  0  0  0  0  0  0  0  0  0  0  0
   -6.5444    1.0122    0.9034 H   0  0  0  0  0  0  0  0  0  0  0  0
   -6.7846    3.4385    1.2444 H   0  0  0  0  0  0  0  0  0  0  0  0
   -4.9486    4.9745    0.6463 H   0  0  0  0  0  0  0  0  0  0  0  0
  1 20  2  0  0  0  0
  2  7  1  0  0  0  0
  2 17  1  0  0  0  0
  2 18  1  0  0  0  0
  3  4  1  0  0  0  0
  3 10  1  0  0  0  0
  3 39  1  0  0  0  0
  4 13  2  0  0  0  0
  5 13  1  0  0  0  0
  5 20  1  0  0  0  0
  5 40  1  0  0  0  0
  6  7  2  0  0  0  0
  6 14  1  0  0  0  0
  8 32  3  0  0  0  0
  9 10  2  0  0  0  0
  9 12  1  0  0  0  0
  9 13  1  0  0  0  0
 10 15  1  0  0  0  0
 11 12  2  0  0  0  0
 11 14  1  0  0  0  0
 11 16  1  0  0  0  0
 12 33  1  0  0  0  0
 14 18  2  0  0  0  0
 15 16  2  0  0  0  0
 15 34  1  0  0  0  0
 16 35  1  0  0  0  0
 17 19  1  0  0  0  0
 17 36  1  0  0  0  0
 17 37  1  0  0  0  0
 18 38  1  0  0  0  0
 19 21  2  0  0  0  0
 19 22  1  0  0  0  0
 20 23  1  0  0  0  0
 21 24  1  0  0  0  0
 21 41  1  0  0  0  0
 22 25  2  0  0  0  0
 22 42  1  0  0  0  0
 23 27  1  0  0  0  0
 23 28  2  0  0  0  0
 24 26  2  0  0  0  0
 24 43  1  0  0  0  0
 25 26  1  0  0  0  0
 25 44  1  0  0  0  0
 26 45  1  0  0  0  0
 27 29  2  0  0  0  0
 27 46  1  0  0  0  0
 28 30  1  0  0  0  0
 28 47  1  0  0  0  0
 29 31  1  0  0  0  0
 29 32  1  0  0  0  0
 30 31  2  0  0  0  0
 30 48  1  0  0  0  0
 31 49  1  0  0  0  0
M  END
> <PUBCHEM_COMPOUND_CID>
49830471

> <PUBCHEM_CONFORMER_RMSD>
1

> <PUBCHEM_CONFORMER_DIVERSEORDER>
2
120
74
87
88
52
27
108
115
148
119
90
109
16
105
112
99
56
123
104
58
62
126
36
13
98
44
76
146
68
31
42
69
66
96
94
97
101
95
41
30
136
75
100
79
138
29
117
77
72
84
122
12
80
118
125
83
60
86
35
46
113
67
82
28
65
85
7
142
124
57
121
63
32
54
17
102
144
110
141
127
149
129
34
55
91
61
78
50
47
106
5
38
133
21
45
73
137
11
40
53
134
37
3
131
93
139
43
143
33
114
92
8
135
25
71
10
48
15
128
20
107
23
130
59
6
111
132
22
39
116
14
140
145
26
4
103
51
89
24
64
49
19
147
1
9
70
81
18

> <PUBCHEM_MMFF94_PARTIAL_CHARGES>
46
1 -0.57
10 -0.15
11 0.05
12 -0.15
13 0.35
14 0.17
15 -0.15
16 -0.15
17 0.4
18 -0.3
19 -0.14
2 0.31
20 0.54
21 -0.15
22 -0.15
23 0.09
24 -0.15
25 -0.15
26 -0.15
27 -0.15
28 -0.15
29 0.07
3 0.3
30 -0.15
31 -0.15
32 0.48
33 0.15
34 0.15
35 0.15
38 0.15
39 0.27
4 -0.71
40 0.37
41 0.15
42 0.15
43 0.15
44 0.15
45 0.15
46 0.15
47 0.15
48 0.15
49 0.15
5 -0.49
6 -0.23
7 -0.42
8 -0.56

> <PUBCHEM_EFFECTIVE_ROTOR_COUNT>
6

> <PUBCHEM_PHARMACOPHORE_FEATURES>
9
1 1 acceptor
1 3 donor
1 5 donor
1 8 acceptor
5 2 6 7 14 18 rings
5 3 4 9 10 13 rings
6 19 21 22 24 25 26 rings
6 23 27 28 29 30 31 rings
6 9 10 11 12 15 16 rings

> <PUBCHEM_HEAVY_ATOM_COUNT>
32

> <PUBCHEM_ATOM_DEF_STEREO_COUNT>
0

> <PUBCHEM_ATOM_UDEF_STEREO_COUNT>
0

> <PUBCHEM_BOND_DEF_STEREO_COUNT>
0

> <PUBCHEM_BOND_UDEF_STEREO_COUNT>
0

> <PUBCHEM_ISOTOPIC_ATOM_COUNT>
0

> <PUBCHEM_COMPONENT_COUNT>
1

> <PUBCHEM_CACTVS_TAUTO_COUNT>
24

> <PUBCHEM_CONFORMER_ID>
02F85A4700000002

> <PUBCHEM_MMFF94_ENERGY>
72.992

> <PUBCHEM_FEATURE_SELFOVERLAP>
45.764

> <PUBCHEM_SHAPE_FINGERPRINT>
100830 2 18261682587780671788
10883706 163 18261668190786200669
10917259 128 18122895694021623176
10917259 69 18410296931073474092
11273773 38 18411419471171153280
11374522 34 18116424834924497421
11410812 94 18120956134204143396
11761917 142 18125431158775640232
11973864 155 18056501468353267976
11973864 220 17755310303322900228
12107183 9 18264191557752047034
12173638 208 17480039501545544689
13627167 48 18270420320649403108
13944108 23 17981894038367582240
14251764 75 18411423890554850673
14347329 18 18340481266148865242
14790565 3 18411136913640598490
14849402 71 18050568447743525498
14932702 115 18059853991270418672
15274700 147 17396724432555908860
15320291 9 17473248886849248552
15320467 1 18410853304076470769
16067690 210 18040709226098727097
16990350 14 18339077073851973682
18393751 57 18335144164178934691
19053607 189 18339350864610323008
19302320 297 18193277386316642434
19611394 137 17537445393950831411
20691028 202 18341328894998271849
21133410 127 18043534902199889908
21315764 268 17832423090999153685
21859007 373 17984975150028944000
22033318 11 18114447995533653472
22864921 10 18335140865190266724
23398203 216 18336820918530266812
23569914 152 10276224768822295046
245318 6 18114758095628868364
24893989 43 11783489247865226933
325973 47 16681749962368704845
437795 96 17755290172072347749
50080093 196 17968087685743594888
5047190 48 18409727331144296948
50677037 204 18194391414834294609
550186 7 18129665321512346214
550186 72 18051409870771007911
5776283 40 18266198140528490742
6036956 94 18336259051689546589
6176135 31 18267297630101441369
6371009 1 18194935522818461731
6608658 132 18055059123819265878
7808743 9 18411975875430904739
9982175 49 17532664644405002908

> <PUBCHEM_SHAPE_MULTIPOLES>
617.81
16.46
8.26
0.96
9.36
0.05
-0.1
-19.62
-0.06
-4.21
1.73
0.99
-0.4
-2.37

> <PUBCHEM_SHAPE_SELFOVERLAP>
1379.187

> <PUBCHEM_SHAPE_VOLUME>
327

> <PUBCHEM_COORDINATE_TYPE>
2
5
10

$$$$
25164472
  -OEChem-05102415023D

 47 50  0     0  0  0  0  0  0999 V2000
    5.9231    1.0680    0.2529 O   0  0  0  0  0  0  0  0  0  0  0  0
   -3.2648   -0.8212   -0.9134 N   0  0  0  0  0  0  0  0  0  0  0  0
    3.9668   -2.6950    0.4558 N   0  0  0  0  0  0  0  0  0  0  0  0
    3.6080    0.6970    0.0269 N   0  0  0  0  0  0  0  0  0  0  0  0
    4.5233   -1.4745    0.3819 N   0  0  0  0  0  0  0  0  0  0  0  0
   -2.4784   -2.4578    0.2402 N   0  0  0  0  0  0  0  0  0  0  0  0
   -3.6054   -1.8749   -0.1536 N   0  0  0  0  0  0  0  0  0  0  0  0
    2.2541   -1.3715    0.1040 C   0  0  0  0  0  0  0  0  0  0  0  0
    2.6072   -2.7024    0.2967 C   0  0  0  0  0  0  0  0  0  0  0  0
   -0.0463   -2.0689   -0.0868 C   0  0  0  0  0  0  0  0  0  0  0  0
    0.9033   -1.0395   -0.0922 C   0  0  0  0  0  0  0  0  0  0  0  0
    3.4783   -0.6720    0.1682 C   0  0  0  0  0  0  0  0  0  0  0  0
   -1.4333   -1.7506   -0.2862 C   0  0  0  0  0  0  0  0  0  0  0  0
    1.6767   -3.7438    0.3059 C   0  0  0  0  0  0  0  0  0  0  0  0
    0.3359   -3.3974    0.1090 C   0  0  0  0  0  0  0  0  0  0  0  0
   -4.2769    0.0221   -1.4966 C   0  0  0  0  0  0  0  0  0  0  0  0
   -1.9140   -0.7002   -1.0271 C   0  0  0  0  0  0  0  0  0  0  0  0
    4.4822    2.9565   -0.1605 C   0  0  0  0  0  0  0  0  0  0  0  0
   -4.8807    0.9967   -0.5159 C   0  0  0  0  0  0  0  0  0  0  0  0
    4.7821    1.4807    0.0735 C   0  0  0  0  0  0  0  0  0  0  0  0
    5.7179    3.8531   -0.1210 C   0  0  0  0  0  0  0  0  0  0  0  0
   -5.8361    0.5603    0.4021 C   0  0  0  0  0  0  0  0  0  0  0  0
   -4.4833    2.3338   -0.5264 C   0  0  0  0  0  0  0  0  0  0  0  0
    5.3926    5.3085   -0.4266 C   0  0  0  0  0  0  0  0  0  0  0  0
   -6.3942    1.4609    1.3094 C   0  0  0  0  0  0  0  0  0  0  0  0
   -5.0413    3.2342    0.3810 C   0  0  0  0  0  0  0  0  0  0  0  0
   -5.9967    2.7978    1.2989 C   0  0  0  0  0  0  0  0  0  0  0  0
    0.6236    0.0006   -0.2320 H   0  0  0  0  0  0  0  0  0  0  0  0
    1.9758   -4.7750    0.4574 H   0  0  0  0  0  0  0  0  0  0  0  0
   -0.4041   -4.1957    0.1089 H   0  0  0  0  0  0  0  0  0  0  0  0
   -5.0556   -0.6274   -1.9153 H   0  0  0  0  0  0  0  0  0  0  0  0
   -3.8279    0.5520   -2.3455 H   0  0  0  0  0  0  0  0  0  0  0  0
    4.5746   -3.4883    0.6175 H   0  0  0  0  0  0  0  0  0  0  0  0
   -1.4454    0.0855   -1.6039 H   0  0  0  0  0  0  0  0  0  0  0  0
    2.7331    1.1909   -0.1336 H   0  0  0  0  0  0  0  0  0  0  0  0
    3.7651    3.2822    0.6026 H   0  0  0  0  0  0  0  0  0  0  0  0
    3.9922    3.0463   -1.1377 H   0  0  0  0  0  0  0  0  0  0  0  0
    6.1890    3.7874    0.8671 H   0  0  0  0  0  0  0  0  0  0  0  0
    6.4585    3.4943   -0.8459 H   0  0  0  0  0  0  0  0  0  0  0  0
   -6.1594   -0.4770    0.4183 H   0  0  0  0  0  0  0  0  0  0  0  0
   -3.7384    2.6864   -1.2346 H   0  0  0  0  0  0  0  0  0  0  0  0
    4.9581    5.4103   -1.4261 H   0  0  0  0  0  0  0  0  0  0  0  0
    6.3013    5.9170   -0.3863 H   0  0  0  0  0  0  0  0  0  0  0  0
    4.6803    5.7103    0.3010 H   0  0  0  0  0  0  0  0  0  0  0  0
   -7.1391    1.1214    2.0232 H   0  0  0  0  0  0  0  0  0  0  0  0
   -4.7316    4.2752    0.3734 H   0  0  0  0  0  0  0  0  0  0  0  0
   -6.4313    3.4991    2.0052 H   0  0  0  0  0  0  0  0  0  0  0  0
  1 20  2  0  0  0  0
  2  7  1  0  0  0  0
  2 16  1  0  0  0  0
  2 17  1  0  0  0  0
  3  5  1  0  0  0  0
  3  9  1  0  0  0  0
  3 33  1  0  0  0  0
  4 12  1  0  0  0  0
  4 20  1  0  0  0  0
  4 35  1  0  0  0  0
  5 12  2  0  0  0  0
  6  7  2  0  0  0  0
  6 13  1  0  0  0  0
  8  9  2  0  0  0  0
  8 11  1  0  0  0  0
  8 12  1  0  0  0  0
  9 14  1  0  0  0  0
 10 11  2  0  0  0  0
 10 13  1  0  0  0  0
 10 15  1  0  0  0  0
 11 28  1  0  0  0  0
 13 17  2  0  0  0  0
 14 15  2  0  0  0  0
 14 29  1  0  0  0  0
 15 30  1  0  0  0  0
 16 19  1  0  0  0  0
 16 31  1  0  0  0  0
 16 32  1  0  0  0  0
 17 34  1  0  0  0  0
 18 20  1  0  0  0  0
 18 21  1  0  0  0  0
 18 36  1  0  0  0  0
 18 37  1  0  0  0  0
 19 22  2  0  0  0  0
 19 23  1  0  0  0  0
 21 24  1  0  0  0  0
 21 38  1  0  0  0  0
 21 39  1  0  0  0  0
 22 25  1  0  0  0  0
 22 40  1  0  0  0  0
 23 26  2  0  0  0  0
 23 41  1  0  0  0  0
 24 42  1  0  0  0  0
 24 43  1  0  0  0  0
 24 44  1  0  0  0  0
 25 27  2  0  0  0  0
 25 45  1  0  0  0  0
 26 27  1  0  0  0  0
 26 46  1  0  0  0  0
 27 47  1  0  0  0  0
M  END
> <PUBCHEM_COMPOUND_CID>
25164472

> <PUBCHEM_CONFORMER_RMSD>
1

> <PUBCHEM_CONFORMER_DIVERSEORDER>
1
112
48
30
109
36
86
95
83
39
114
104
45
29
54
63
31
75
98
50
44
77
99
110
78
35
20
108
82
106
22
102
74
56
65
37
53
90
59
6
34
19
94
26
52
79
113
66
33
107
91
40
2
70
67
88
17
76
43
92
71
55
23
12
89
60
62
24
57
103
97
100
13
18
47
81
51
49
111
105
14
28
46
69
32
80
15
27
85
7
8
101
21
25
73
96
93
9
84
68
61
58
87
42
41
72
16
10
4
11
64
38
3
5

> <PUBCHEM_MMFF94_PARTIAL_CHARGES>
35
1 -0.57
10 0.05
11 -0.15
12 0.35
13 0.17
14 -0.15
15 -0.15
16 0.4
17 -0.3
18 0.06
19 -0.14
2 0.31
20 0.57
22 -0.15
23 -0.15
25 -0.15
26 -0.15
27 -0.15
28 0.15
29 0.15
3 0.3
30 0.15
33 0.27
34 0.15
35 0.37
4 -0.49
40 0.15
41 0.15
45 0.15
46 0.15
47 0.15
5 -0.71
6 -0.23
7 -0.42
9 -0.15

> <PUBCHEM_EFFECTIVE_ROTOR_COUNT>
7

> <PUBCHEM_PHARMACOPHORE_FEATURES>
8
1 1 acceptor
1 24 hydrophobe
1 3 donor
1 4 donor
5 2 6 7 13 17 rings
5 3 5 8 9 12 rings
6 19 22 23 25 26 27 rings
6 8 9 10 11 14 15 rings

> <PUBCHEM_HEAVY_ATOM_COUNT>
27

> <PUBCHEM_ATOM_DEF_STEREO_COUNT>
0

> <PUBCHEM_ATOM_UDEF_STEREO_COUNT>
0

> <PUBCHEM_BOND_DEF_STEREO_COUNT>
0

> <PUBCHEM_BOND_UDEF_STEREO_COUNT>
0

> <PUBCHEM_ISOTOPIC_ATOM_COUNT>
0

> <PUBCHEM_COMPONENT_COUNT>
1

> <PUBCHEM_CACTVS_TAUTO_COUNT>
8

> <PUBCHEM_CONFORMER_ID>
017FFAB800000001

> <PUBCHEM_MMFF94_ENERGY>
50.1596

> <PUBCHEM_FEATURE_SELFOVERLAP>
40.688

> <PUBCHEM_SHAPE_FINGERPRINT>
100830 2 17986968366288025137
10429389 16 11743560930174499339
11070050 100 16950844708928235410
11101153 10 18412256221822629605
11135609 201 18339926034167246091
11479125 193 18410581711982987577
1200032 147 18186806911502605888
12788726 201 17346039944407233505
12975358 362 16839970923622312889
13398642 44 18041857206237428357
13885169 86 18412267229143534865
14251764 75 18411422838261813836
14347329 18 18340198712987969000
14429114 114 18339919428149452360
14790565 3 18411418422971766268
14849402 71 18336547093280641338
15081414 286 18123466068691162430
15142526 21 18260548909540161747
16728433 281 17829904475250086724
16760501 71 18409452449495909673
1768 23 17488198002159934641
1768 85 18335701594450118141
19302320 297 18195813955579478641
19438510 23 18187925144518201232
20691028 202 18271523088269175993
20737093 172 16160140676100833320
21307412 95 9653928124612942514
21315764 268 18046625604068632309
22122407 14 18340216184977790899
23569914 152 9654195207902986635
245318 6 18114757030461271876
2748736 6 18339911727578876928
3103668 31 17257940291437178318
4280585 95 9294751760784810197
437795 171 18334285448949123533
437795 96 17753323180694471525
5104073 3 18113894966037326946
5223283 242 17699032612091929950
5364581 5 18335991913392304033
53794403 172 18411143515490876100
550186 72 17905888428781953007
57724786 102 18340485582105791487
5951187 136 18272101469923404532
6034566 193 18272378598324795107
6058803 2 18270095973315549391
633830 44 18341041952312344670
636775 72 17837205245184892240

> <PUBCHEM_SHAPE_MULTIPOLES>
519.89
17.28
6.18
0.95
5.82
4.83
0.05
22.35
-2.65
-8.77
-0.35
1.39
0.25
-2.37

> <PUBCHEM_SHAPE_SELFOVERLAP>
1133.856

> <PUBCHEM_SHAPE_VOLUME>
284.8

> <PUBCHEM_COORDINATE_TYPE>
2
5
10

$$$$
25164470
  -OEChem-05102415023D

 56 60  0     0  0  0  0  0  0999 V2000
   -4.1048   -1.9592   -0.4480 O   0  0  0  0  0  0  0  0  0  0  0  0
   -8.2372    0.2918    0.1245 N   0  0  0  0  0  0  0  0  0  0  0  0
   -2.9305   -0.0400   -0.1442 N   0  0  0  0  0  0  0  0  0  0  0  0
   -2.9659    1.3102   -0.0246 N   0  0  0  0  0  0  0  0  0  0  0  0
   -1.2509    2.9393    0.3075 N   0  0  0  0  0  0  0  0  0  0  0  0
    4.5863   -0.8759    0.8937 N   0  0  0  0  0  0  0  0  0  0  0  0
    3.2276   -2.1019   -0.2370 N   0  0  0  0  0  0  0  0  0  0  0  0
    4.5031   -1.9613    0.1075 N   0  0  0  0  0  0  0  0  0  0  0  0
   -5.3665    0.0949   -0.3945 C   0  0  0  0  0  0  0  0  0  0  0  0
   -6.4052   -0.5606   -1.3023 C   0  0  0  0  0  0  0  0  0  0  0  0
   -5.9291    0.2734    1.0147 C   0  0  0  0  0  0  0  0  0  0  0  0
   -7.7372    0.1902   -1.2535 C   0  0  0  0  0  0  0  0  0  0  0  0
   -7.2774    0.9952    0.9866 C   0  0  0  0  0  0  0  0  0  0  0  0
   -4.1263   -0.7422   -0.3375 C   0  0  0  0  0  0  0  0  0  0  0  0
   -9.5358    0.9647    0.1492 C   0  0  0  0  0  0  0  0  0  0  0  0
   -1.6376   -0.5407   -0.0508 C   0  0  0  0  0  0  0  0  0  0  0  0
   -0.8153    0.5692    0.1391 C   0  0  0  0  0  0  0  0  0  0  0  0
   -1.6946    1.6652    0.1440 C   0  0  0  0  0  0  0  0  0  0  0  0
   -1.1128   -1.8409   -0.1134 C   0  0  0  0  0  0  0  0  0  0  0  0
    0.5738    0.3977    0.2729 C   0  0  0  0  0  0  0  0  0  0  0  0
    1.1033   -0.8948    0.2121 C   0  0  0  0  0  0  0  0  0  0  0  0
    0.2713   -1.9952    0.0219 C   0  0  0  0  0  0  0  0  0  0  0  0
    2.5205   -1.0877    0.3469 C   0  0  0  0  0  0  0  0  0  0  0  0
    3.3701   -0.2926    1.0743 C   0  0  0  0  0  0  0  0  0  0  0  0
    5.8536   -0.4563    1.4356 C   0  0  0  0  0  0  0  0  0  0  0  0
    6.7195    0.2709    0.4368 C   0  0  0  0  0  0  0  0  0  0  0  0
    7.4215   -0.4478   -0.5312 C   0  0  0  0  0  0  0  0  0  0  0  0
    6.8176    1.6616    0.4804 C   0  0  0  0  0  0  0  0  0  0  0  0
    8.2215    0.2243   -1.4552 C   0  0  0  0  0  0  0  0  0  0  0  0
    7.6177    2.3337   -0.4438 C   0  0  0  0  0  0  0  0  0  0  0  0
    8.3196    1.6149   -1.4116 C   0  0  0  0  0  0  0  0  0  0  0  0
   -5.1601    1.0764   -0.8377 H   0  0  0  0  0  0  0  0  0  0  0  0
   -6.5756   -1.6042   -1.0049 H   0  0  0  0  0  0  0  0  0  0  0  0
   -6.0367   -0.5904   -2.3352 H   0  0  0  0  0  0  0  0  0  0  0  0
   -5.2292    0.8405    1.6400 H   0  0  0  0  0  0  0  0  0  0  0  0
   -6.0488   -0.7051    1.4997 H   0  0  0  0  0  0  0  0  0  0  0  0
   -8.4598   -0.3570   -1.8711 H   0  0  0  0  0  0  0  0  0  0  0  0
   -7.6157    1.1859   -1.7003 H   0  0  0  0  0  0  0  0  0  0  0  0
   -7.1337    2.0303    0.6494 H   0  0  0  0  0  0  0  0  0  0  0  0
   -7.6626    1.0378    2.0127 H   0  0  0  0  0  0  0  0  0  0  0  0
   -9.9330    0.9971    1.1698 H   0  0  0  0  0  0  0  0  0  0  0  0
  -10.2663    0.4137   -0.4536 H   0  0  0  0  0  0  0  0  0  0  0  0
   -9.4780    1.9908   -0.2314 H   0  0  0  0  0  0  0  0  0  0  0  0
   -1.7432   -2.7106   -0.2600 H   0  0  0  0  0  0  0  0  0  0  0  0
    1.2076    1.2694    0.4093 H   0  0  0  0  0  0  0  0  0  0  0  0
    0.6805   -3.0029   -0.0222 H   0  0  0  0  0  0  0  0  0  0  0  0
   -0.2713    3.1745    0.4342 H   0  0  0  0  0  0  0  0  0  0  0  0
   -1.8874    3.7302    0.3111 H   0  0  0  0  0  0  0  0  0  0  0  0
    3.2319    0.5918    1.6813 H   0  0  0  0  0  0  0  0  0  0  0  0
    6.3716   -1.3484    1.8092 H   0  0  0  0  0  0  0  0  0  0  0  0
    5.6552    0.1743    2.3108 H   0  0  0  0  0  0  0  0  0  0  0  0
    7.3589   -1.5318   -0.5739 H   0  0  0  0  0  0  0  0  0  0  0  0
    6.2744    2.2338    1.2277 H   0  0  0  0  0  0  0  0  0  0  0  0
    8.7691   -0.3352   -2.2079 H   0  0  0  0  0  0  0  0  0  0  0  0
    7.6937    3.4166   -0.4104 H   0  0  0  0  0  0  0  0  0  0  0  0
    8.9426    2.1382   -2.1309 H   0  0  0  0  0  0  0  0  0  0  0  0
  1 14  2  0  0  0  0
  2 12  1  0  0  0  0
  2 13  1  0  0  0  0
  2 15  1  0  0  0  0
  3  4  1  0  0  0  0
  3 14  1  0  0  0  0
  3 16  1  0  0  0  0
  4 18  2  0  0  0  0
  5 18  1  0  0  0  0
  5 47  1  0  0  0  0
  5 48  1  0  0  0  0
  6  8  1  0  0  0  0
  6 24  1  0  0  0  0
  6 25  1  0  0  0  0
  7  8  2  0  0  0  0
  7 23  1  0  0  0  0
  9 10  1  0  0  0  0
  9 11  1  0  0  0  0
  9 14  1  0  0  0  0
  9 32  1  0  0  0  0
 10 12  1  0  0  0  0
 10 33  1  0  0  0  0
 10 34  1  0  0  0  0
 11 13  1  0  0  0  0
 11 35  1  0  0  0  0
 11 36  1  0  0  0  0
 12 37  1  0  0  0  0
 12 38  1  0  0  0  0
 13 39  1  0  0  0  0
 13 40  1  0  0  0  0
 15 41  1  0  0  0  0
 15 42  1  0  0  0  0
 15 43  1  0  0  0  0
 16 17  2  0  0  0  0
 16 19  1  0  0  0  0
 17 18  1  0  0  0  0
 17 20  1  0  0  0  0
 19 22  2  0  0  0  0
 19 44  1  0  0  0  0
 20 21  2  0  0  0  0
 20 45  1  0  0  0  0
 21 22  1  0  0  0  0
 21 23  1  0  0  0  0
 22 46  1  0  0  0  0
 23 24  2  0  0  0  0
 24 49  1  0  0  0  0
 25 26  1  0  0  0  0
 25 50  1  0  0  0  0
 25 51  1  0  0  0  0
 26 27  2  0  0  0  0
 26 28  1  0  0  0  0
 27 29  1  0  0  0  0
 27 52  1  0  0  0  0
 28 30  2  0  0  0  0
 28 53  1  0  0  0  0
 29 31  2  0  0  0  0
 29 54  1  0  0  0  0
 30 31  1  0  0  0  0
 30 55  1  0  0  0  0
 31 56  1  0  0  0  0
M  END
> <PUBCHEM_COMPOUND_CID>
25164470

> <PUBCHEM_CONFORMER_RMSD>
1

> <PUBCHEM_CONFORMER_DIVERSEORDER>
1
63
95
38
48
45
33
6
93
40
20
92
99
62
69
42
111
56
30
57
70
17
108
89
109
105
32
5
87
43
52
94
86
15
90
53
80
25
58
73
71
106
28
75
55
61
78
2
115
68
74
50
46
41
9
29
114
36
39
49
14
101
116
4
81
72
18
85
107
83
35
3
66
8
88
64
103
117
112
24
7
11
51
110
10
22
67
60
19
104
31
113
82
27
26
21
47
91
97
54
13
102
98
44
12
96
16
59
34
79
84
23
37
100
77
65
76

> <PUBCHEM_MMFF94_PARTIAL_CHARGES>
39
1 -0.57
12 0.27
13 0.27
14 0.52
15 0.27
16 -0.15
18 0.37
19 -0.15
2 -0.81
20 -0.15
21 0.05
22 -0.15
23 0.17
24 -0.3
25 0.4
26 -0.14
27 -0.15
28 -0.15
29 -0.15
3 0.56
30 -0.15
31 -0.15
4 -0.71
44 0.15
45 0.15
46 0.15
47 0.4
48 0.4
49 0.15
5 -0.88
52 0.15
53 0.15
54 0.15
55 0.15
56 0.15
6 0.31
7 -0.23
8 -0.42
9 0.06

> <PUBCHEM_EFFECTIVE_ROTOR_COUNT>
6.2

> <PUBCHEM_PHARMACOPHORE_FEATURES>
9
1 1 acceptor
1 2 cation
1 5 donor
3 4 5 18 cation
5 3 4 16 17 18 rings
5 6 7 8 23 24 rings
6 16 17 19 20 21 22 rings
6 2 9 10 11 12 13 rings
6 26 27 28 29 30 31 rings

> <PUBCHEM_HEAVY_ATOM_COUNT>
31

> <PUBCHEM_ATOM_DEF_STEREO_COUNT>
0

> <PUBCHEM_ATOM_UDEF_STEREO_COUNT>
0

> <PUBCHEM_BOND_DEF_STEREO_COUNT>
0

> <PUBCHEM_BOND_UDEF_STEREO_COUNT>
0

> <PUBCHEM_ISOTOPIC_ATOM_COUNT>
0

> <PUBCHEM_COMPONENT_COUNT>
1

> <PUBCHEM_CACTVS_TAUTO_COUNT>
2

> <PUBCHEM_CONFORMER_ID>
017FFAB600000001

> <PUBCHEM_MMFF94_ENERGY>
63.9316

> <PUBCHEM_FEATURE_SELFOVERLAP>
45.761

> <PUBCHEM_SHAPE_FINGERPRINT>
10 15 17894348877959248731
10299344 5 17989203733308090187
10533779 1 17824270522198628972
10533779 47 15068883271879351112
11181472 205 18058737896478110193
11315181 36 18411699894819444427
11578821 258 17603863403675988013
11638347 137 14779257597837973880
11719270 70 11530477818848073112
11991303 11 17203041998006015190
12539765 74 18271812302455226902
12664476 115 18413386541403969120
13383665 225 18199767880981645172
14216079 64 10663822962472339196
14251764 18 18201996625658272483
14428016 248 18408608054662574045
14537116 161 17846782932149894608
1454969 45 18412261735658466308
15064981 194 17971774395971435870
15276724 80 18411695452710339829
15301273 46 15339117944136898609
15361156 5 18340484555951615927
15461852 350 17346594210490364439
1577012 14 18261104205946218050
15840311 113 17895198818661156188
15980000 95 18412545401613096681
16087824 20 18340767041074134341
1754908 1 14779266406003760913
1754911 235 18341896307601802196
17899979 19 18040716973961486757
195137 175 18272091599935674281
20105231 36 11815605408031235965
2026 5 11023564475341569108
21927370 108 14261073229755756091
23559900 14 18269264828365390784
23576562 1 17844236548280151517
24771293 8 18201725016559414705
335352 9 18413383251295068199
34797466 226 18273219686418506340
350125 39 18412822495194677032
4017518 198 16559032701257353903
4073 2 18408324397748116523
4112364 45 17168434860847311270
4258327 124 17968670414268859724
4325135 7 18412262831144002878
4625314 4 18408322194550641014
5028188 123 17418088862178336021
54583773 228 18115871969927968863
5486654 2 18413103970113430122
5758199 1 18413387623049984299
59682541 35 17749395879682789035
6081469 158 12103846748221468179
6201320 82 16987169211401568297
6438161 24 10303814272515297644

> <PUBCHEM_SHAPE_MULTIPOLES>
597.23
29.72
2.13
1.11
2.33
0.35
0.11
12.28
5.78
-1.99
0.05
-0.66
0.09
-1.58

> <PUBCHEM_SHAPE_SELFOVERLAP>
1313.201

> <PUBCHEM_SHAPE_VOLUME>
324

> <PUBCHEM_COORDINATE_TYPE>
2
5
10

$$$$
49830466
  -OEChem-05102415023D

 52 56  0     0  0  0  0  0  0999 V2000
    4.9415   -1.5592    0.4995 O   0  0  0  0  0  0  0  0  0  0  0  0
    7.1187    2.8271   -0.7547 O   0  0  0  0  0  0  0  0  0  0  0  0
   -4.2821   -0.1606   -1.0085 N   0  0  0  0  0  0  0  0  0  0  0  0
    1.8291   -4.4383    0.4201 N   0  0  0  0  0  0  0  0  0  0  0  0
    2.7642   -3.4745    0.4548 N   0  0  0  0  0  0  0  0  0  0  0  0
    2.6460   -1.1039    0.2413 N   0  0  0  0  0  0  0  0  0  0  0  0
   -4.1472   -2.0341    0.0399 N   0  0  0  0  0  0  0  0  0  0  0  0
   -4.9934   -1.0835   -0.3410 N   0  0  0  0  0  0  0  0  0  0  0  0
    0.6773   -2.5962    0.1216 C   0  0  0  0  0  0  0  0  0  0  0  0
    0.5552   -3.9775    0.2227 C   0  0  0  0  0  0  0  0  0  0  0  0
   -1.7107   -2.4650   -0.1861 C   0  0  0  0  0  0  0  0  0  0  0  0
   -0.4729   -1.8172   -0.0867 C   0  0  0  0  0  0  0  0  0  0  0  0
    2.0598   -2.3551    0.2733 C   0  0  0  0  0  0  0  0  0  0  0  0
   -2.9002   -1.6878   -0.4009 C   0  0  0  0  0  0  0  0  0  0  0  0
   -0.6687   -4.6432    0.1268 C   0  0  0  0  0  0  0  0  0  0  0  0
   -1.8047   -3.8540   -0.0809 C   0  0  0  0  0  0  0  0  0  0  0  0
   -4.9233    1.0083   -1.5544 C   0  0  0  0  0  0  0  0  0  0  0  0
   -2.9641   -0.4933   -1.0735 C   0  0  0  0  0  0  0  0  0  0  0  0
   -5.2192    2.0659   -0.5201 C   0  0  0  0  0  0  0  0  0  0  0  0
    4.0116   -0.7734    0.3519 C   0  0  0  0  0  0  0  0  0  0  0  0
    4.3372    0.6734    0.2515 C   0  0  0  0  0  0  0  0  0  0  0  0
   -6.3123    1.9198    0.3339 C   0  0  0  0  0  0  0  0  0  0  0  0
   -4.3995    3.1900   -0.4179 C   0  0  0  0  0  0  0  0  0  0  0  0
   -6.5858    2.8977    1.2904 C   0  0  0  0  0  0  0  0  0  0  0  0
   -4.6731    4.1679    0.5385 C   0  0  0  0  0  0  0  0  0  0  0  0
    5.5906    1.0760   -0.2099 C   0  0  0  0  0  0  0  0  0  0  0  0
    3.3894    1.6287    0.6186 C   0  0  0  0  0  0  0  0  0  0  0  0
   -5.7660    4.0216    1.3928 C   0  0  0  0  0  0  0  0  0  0  0  0
    5.8961    2.4338   -0.3043 C   0  0  0  0  0  0  0  0  0  0  0  0
    3.6949    2.9865    0.5245 C   0  0  0  0  0  0  0  0  0  0  0  0
    4.9481    3.3891    0.0629 C   0  0  0  0  0  0  0  0  0  0  0  0
    7.3634    4.2311   -0.8261 C   0  0  0  0  0  0  0  0  0  0  0  0
   -0.3819   -0.7371   -0.1551 H   0  0  0  0  0  0  0  0  0  0  0  0
   -0.7394   -5.7221    0.2080 H   0  0  0  0  0  0  0  0  0  0  0  0
   -2.7676   -4.3549   -0.1626 H   0  0  0  0  0  0  0  0  0  0  0  0
   -5.8506    0.6855   -2.0438 H   0  0  0  0  0  0  0  0  0  0  0  0
   -4.2795    1.4083   -2.3471 H   0  0  0  0  0  0  0  0  0  0  0  0
    2.1278   -5.3983    0.5383 H   0  0  0  0  0  0  0  0  0  0  0  0
   -2.2310    0.1236   -1.5750 H   0  0  0  0  0  0  0  0  0  0  0  0
    1.9829   -0.3546    0.0674 H   0  0  0  0  0  0  0  0  0  0  0  0
   -6.9627    1.0523    0.2620 H   0  0  0  0  0  0  0  0  0  0  0  0
   -3.5435    3.3152   -1.0756 H   0  0  0  0  0  0  0  0  0  0  0  0
    6.3380    0.3432   -0.5046 H   0  0  0  0  0  0  0  0  0  0  0  0
   -7.4376    2.7845    1.9546 H   0  0  0  0  0  0  0  0  0  0  0  0
   -4.0347    5.0430    0.6186 H   0  0  0  0  0  0  0  0  0  0  0  0
    2.4151    1.3613    1.0163 H   0  0  0  0  0  0  0  0  0  0  0  0
   -5.9790    4.7830    2.1374 H   0  0  0  0  0  0  0  0  0  0  0  0
    2.9593    3.7299    0.8183 H   0  0  0  0  0  0  0  0  0  0  0  0
    5.1192    4.4591    0.0164 H   0  0  0  0  0  0  0  0  0  0  0  0
    6.6917    4.7209   -1.5393 H   0  0  0  0  0  0  0  0  0  0  0  0
    7.3282    4.6966    0.1647 H   0  0  0  0  0  0  0  0  0  0  0  0
    8.3823    4.3626   -1.2049 H   0  0  0  0  0  0  0  0  0  0  0  0
  1 20  2  0  0  0  0
  2 29  1  0  0  0  0
  2 32  1  0  0  0  0
  3  8  1  0  0  0  0
  3 17  1  0  0  0  0
  3 18  1  0  0  0  0
  4  5  1  0  0  0  0
  4 10  1  0  0  0  0
  4 38  1  0  0  0  0
  5 13  2  0  0  0  0
  6 13  1  0  0  0  0
  6 20  1  0  0  0  0
  6 40  1  0  0  0  0
  7  8  2  0  0  0  0
  7 14  1  0  0  0  0
  9 10  2  0  0  0  0
  9 12  1  0  0  0  0
  9 13  1  0  0  0  0
 10 15  1  0  0  0  0
 11 12  2  0  0  0  0
 11 14  1  0  0  0  0
 11 16  1  0  0  0  0
 12 33  1  0  0  0  0
 14 18  2  0  0  0  0
 15 16  2  0  0  0  0
 15 34  1  0  0  0  0
 16 35  1  0  0  0  0
 17 19  1  0  0  0  0
 17 36  1  0  0  0  0
 17 37  1  0  0  0  0
 18 39  1  0  0  0  0
 19 22  2  0  0  0  0
 19 23  1  0  0  0  0
 20 21  1  0  0  0  0
 21 26  2  0  0  0  0
 21 27  1  0  0  0  0
 22 24  1  0  0  0  0
 22 41  1  0  0  0  0
 23 25  2  0  0  0  0
 23 42  1  0  0  0  0
 24 28  2  0  0  0  0
 24 44  1  0  0  0  0
 25 28  1  0  0  0  0
 25 45  1  0  0  0  0
 26 29  1  0  0  0  0
 26 43  1  0  0  0  0
 27 30  2  0  0  0  0
 27 46  1  0  0  0  0
 28 47  1  0  0  0  0
 29 31  2  0  0  0  0
 30 31  1  0  0  0  0
 30 48  1  0  0  0  0
 31 49  1  0  0  0  0
 32 50  1  0  0  0  0
 32 51  1  0  0  0  0
 32 52  1  0  0  0  0
M  END
> <PUBCHEM_COMPOUND_CID>
49830466

> <PUBCHEM_CONFORMER_RMSD>
1

> <PUBCHEM_CONFORMER_DIVERSEORDER>
4
102
56
77
41
115
156
109
124
117
152
132
22
140
143
81
51
175
100
135
162
116
52
82
108
136
28
154
165
68
170
157
137
120
55
92
97
20
39
171
74
59
99
84
123
27
119
103
130
32
25
151
111
172
129
107
101
60
159
80
139
36
53
96
155
78
125
18
144
75
34
133
167
160
94
91
118
95
30
47
70
114
90
38
141
50
121
110
37
158
54
128
57
31
176
8
64
35
73
173
44
113
98
7
61
168
69
112
122
174
43
93
147
145
14
40
48
79
46
138
9
164
42
17
148
161
150
153
142
23
49
71
6
85
45
63
89
163
26
58
72
134
131
149
5
87
62
146
166
127
106
10
29
3
104
105
83
19
126
66
13
76
169
88
11
67
24
16
86
1
65
21
12
33
2
15

> <PUBCHEM_MMFF94_PARTIAL_CHARGES>
46
1 -0.57
10 -0.15
11 0.05
12 -0.15
13 0.35
14 0.17
15 -0.15
16 -0.15
17 0.4
18 -0.3
19 -0.14
2 -0.36
20 0.54
21 0.09
22 -0.15
23 -0.15
24 -0.15
25 -0.15
26 -0.15
27 -0.15
28 -0.15
29 0.08
3 0.31
30 -0.15
31 -0.15
32 0.28
33 0.15
34 0.15
35 0.15
38 0.27
39 0.15
4 0.3
40 0.37
41 0.15
42 0.15
43 0.15
44 0.15
45 0.15
46 0.15
47 0.15
48 0.15
49 0.15
5 -0.71
6 -0.49
7 -0.23
8 -0.42

> <PUBCHEM_EFFECTIVE_ROTOR_COUNT>
7

> <PUBCHEM_PHARMACOPHORE_FEATURES>
9
1 1 acceptor
1 2 acceptor
1 4 donor
1 6 donor
5 3 7 8 14 18 rings
5 4 5 9 10 13 rings
6 19 22 23 24 25 28 rings
6 21 26 27 29 30 31 rings
6 9 10 11 12 15 16 rings

> <PUBCHEM_HEAVY_ATOM_COUNT>
32

> <PUBCHEM_ATOM_DEF_STEREO_COUNT>
0

> <PUBCHEM_ATOM_UDEF_STEREO_COUNT>
0

> <PUBCHEM_BOND_DEF_STEREO_COUNT>
0

> <PUBCHEM_BOND_UDEF_STEREO_COUNT>
0

> <PUBCHEM_ISOTOPIC_ATOM_COUNT>
0

> <PUBCHEM_COMPONENT_COUNT>
1

> <PUBCHEM_CACTVS_TAUTO_COUNT>
24

> <PUBCHEM_CONFORMER_ID>
02F85A4200000004

> <PUBCHEM_MMFF94_ENERGY>
86.1189

> <PUBCHEM_FEATURE_SELFOVERLAP>
45.764

> <PUBCHEM_SHAPE_FINGERPRINT>
100830 2 18341335487694339673
10439779 11 18266446789044056832
10917259 69 18410295831514347572
11101153 10 18341603773727739437
11408170 253 17903369439359271796
11479125 193 18410860928043978561
11761917 142 18124586742393270728
11828042 163 18341340977516547332
11828042 53 18339369669075247748
11973864 155 18056779649179843809
1200032 147 18186805786073299456
12013929 29 18341335518064851412
12107183 9 18189312672848795354
13885169 86 18269275665021416097
13944108 23 18196655099323089252
14026016 13 18342745100688345377
14251764 75 18411420570819476089
14347329 18 18339633529371855504
14429114 114 18412256263975918713
14664723 55 18188777261777283228
14747282 140 18264214784565898925
14790565 3 18410853252536077159
14849402 71 18121499059542663698
15064981 113 17418104221920084878
15320295 198 17469605110195212253
15320467 1 18266174118064597885
15351339 4 18341884208420674537
15400415 2 18409725188319762540
15980000 95 17760922949457806850
16112460 7 18411983529115542440
16728433 281 18191034598289551356
16990350 14 18338511946260553360
19053607 189 18338783550996567585
19302320 297 18194119607923562611
20691028 202 18341890754193426425
21859007 373 17839734104927619480
22122407 14 18338519642799814867
23569914 152 17700718189814244900
3552219 110 17775007947345126475
4058900 60 18334856125848292570
437795 171 18189608350444168405
5047190 92 18410295792278996881
5104073 3 18042686101193831651
5223283 242 17412205160873928807
53794403 172 18267589004855955726
550186 72 18194678392465899871
57724786 102 18196368126841305559
5951187 136 18129107710092523654
6058803 2 18268123423865025767
636783 54 18130798797958569497
7970288 3 9187483973118981131

> <PUBCHEM_SHAPE_MULTIPOLES>
616.92
19.14
8.05
0.99
5.56
1.73
0.06
-31.64
0.73
0.81
-1.22
-1.03
-0.63
-3.35

> <PUBCHEM_SHAPE_SELFOVERLAP>
1371.967

> <PUBCHEM_SHAPE_VOLUME>
330.3

> <PUBCHEM_COORDINATE_TYPE>
2
5
10

$$$$
25164272
  -OEChem-05102415023D

 44 48  0     0  0  0  0  0  0999 V2000
   -4.4841   -2.0997   -0.4749 N   0  0  0  0  0  0  0  0  0  0  0  0
    2.9174   -1.0710    0.8815 N   0  0  0  0  0  0  0  0  0  0  0  0
   -4.8991   -0.8252   -0.3840 N   0  0  0  0  0  0  0  0  0  0  0  0
    1.9474   -2.5944   -0.2874 N   0  0  0  0  0  0  0  0  0  0  0  0
    3.1343   -2.1474    0.1083 N   0  0  0  0  0  0  0  0  0  0  0  0
   -2.6317   -0.9821   -0.1164 C   0  0  0  0  0  0  0  0  0  0  0  0
   -3.1334   -2.2623   -0.3228 C   0  0  0  0  0  0  0  0  0  0  0  0
   -0.4240   -1.9368    0.0547 C   0  0  0  0  0  0  0  0  0  0  0  0
   -3.7694   -0.1483   -0.1663 C   0  0  0  0  0  0  0  0  0  0  0  0
   -1.2513   -0.8070    0.0769 C   0  0  0  0  0  0  0  0  0  0  0  0
    0.9907   -1.7798    0.2516 C   0  0  0  0  0  0  0  0  0  0  0  0
   -2.3264   -3.4018   -0.3488 C   0  0  0  0  0  0  0  0  0  0  0  0
   -0.9544   -3.2112   -0.1547 C   0  0  0  0  0  0  0  0  0  0  0  0
   -3.8032    1.2841   -0.0123 C   0  0  0  0  0  0  0  0  0  0  0  0
    4.0202   -0.3545    1.4700 C   0  0  0  0  0  0  0  0  0  0  0  0
    1.5894   -0.7994    1.0024 C   0  0  0  0  0  0  0  0  0  0  0  0
    4.7275    0.5570    0.4978 C   0  0  0  0  0  0  0  0  0  0  0  0
   -3.3492    1.8695    1.1698 C   0  0  0  0  0  0  0  0  0  0  0  0
   -4.2893    2.0855   -1.0454 C   0  0  0  0  0  0  0  0  0  0  0  0
    5.6246    0.0263   -0.4293 C   0  0  0  0  0  0  0  0  0  0  0  0
    4.4839    1.9302    0.5253 C   0  0  0  0  0  0  0  0  0  0  0  0
   -3.3815    3.2560    1.3187 C   0  0  0  0  0  0  0  0  0  0  0  0
   -4.3214    3.4721   -0.8964 C   0  0  0  0  0  0  0  0  0  0  0  0
   -3.8674    4.0572    0.2857 C   0  0  0  0  0  0  0  0  0  0  0  0
    6.2783    0.8687   -1.3286 C   0  0  0  0  0  0  0  0  0  0  0  0
    5.1375    2.7725   -0.3741 C   0  0  0  0  0  0  0  0  0  0  0  0
    6.0346    2.2418   -1.3011 C   0  0  0  0  0  0  0  0  0  0  0  0
   -0.8536    0.1928    0.2250 H   0  0  0  0  0  0  0  0  0  0  0  0
   -2.7405   -4.3907   -0.5107 H   0  0  0  0  0  0  0  0  0  0  0  0
   -0.3092   -4.0878   -0.1674 H   0  0  0  0  0  0  0  0  0  0  0  0
   -5.1781   -2.8173   -0.6428 H   0  0  0  0  0  0  0  0  0  0  0  0
    4.7217   -1.0929    1.8778 H   0  0  0  0  0  0  0  0  0  0  0  0
    3.6366    0.2126    2.3268 H   0  0  0  0  0  0  0  0  0  0  0  0
    1.2145    0.0275    1.5901 H   0  0  0  0  0  0  0  0  0  0  0  0
   -2.9713    1.2621    1.9889 H   0  0  0  0  0  0  0  0  0  0  0  0
   -4.6441    1.6482   -1.9758 H   0  0  0  0  0  0  0  0  0  0  0  0
    5.8283   -1.0407   -0.4590 H   0  0  0  0  0  0  0  0  0  0  0  0
    3.7858    2.3565    1.2408 H   0  0  0  0  0  0  0  0  0  0  0  0
   -3.0292    3.7117    2.2394 H   0  0  0  0  0  0  0  0  0  0  0  0
   -4.6989    4.0963   -1.7010 H   0  0  0  0  0  0  0  0  0  0  0  0
   -3.8925    5.1368    0.4016 H   0  0  0  0  0  0  0  0  0  0  0  0
    6.9777    0.4558   -2.0496 H   0  0  0  0  0  0  0  0  0  0  0  0
    4.9476    3.8417   -0.3533 H   0  0  0  0  0  0  0  0  0  0  0  0
    6.5436    2.8978   -2.0012 H   0  0  0  0  0  0  0  0  0  0  0  0
  1  3  1  0  0  0  0
  1  7  1  0  0  0  0
  1 31  1  0  0  0  0
  2  5  1  0  0  0  0
  2 15  1  0  0  0  0
  2 16  1  0  0  0  0
  3  9  2  0  0  0  0
  4  5  2  0  0  0  0
  4 11  1  0  0  0  0
  6  7  2  0  0  0  0
  6  9  1  0  0  0  0
  6 10  1  0  0  0  0
  7 12  1  0  0  0  0
  8 10  2  0  0  0  0
  8 11  1  0  0  0  0
  8 13  1  0  0  0  0
  9 14  1  0  0  0  0
 10 28  1  0  0  0  0
 11 16  2  0  0  0  0
 12 13  2  0  0  0  0
 12 29  1  0  0  0  0
 13 30  1  0  0  0  0
 14 18  2  0  0  0  0
 14 19  1  0  0  0  0
 15 17  1  0  0  0  0
 15 32  1  0  0  0  0
 15 33  1  0  0  0  0
 16 34  1  0  0  0  0
 17 20  2  0  0  0  0
 17 21  1  0  0  0  0
 18 22  1  0  0  0  0
 18 35  1  0  0  0  0
 19 23  2  0  0  0  0
 19 36  1  0  0  0  0
 20 25  1  0  0  0  0
 20 37  1  0  0  0  0
 21 26  2  0  0  0  0
 21 38  1  0  0  0  0
 22 24  2  0  0  0  0
 22 39  1  0  0  0  0
 23 24  1  0  0  0  0
 23 40  1  0  0  0  0
 24 41  1  0  0  0  0
 25 27  2  0  0  0  0
 25 42  1  0  0  0  0
 26 27  1  0  0  0  0
 26 43  1  0  0  0  0
 27 44  1  0  0  0  0
M  END
> <PUBCHEM_COMPOUND_CID>
25164272

> <PUBCHEM_CONFORMER_RMSD>
0.8

> <PUBCHEM_CONFORMER_DIVERSEORDER>
1
13
30
25
27
26
9
5
11
33
12
15
20
19
4
23
29
18
2
6
3
22
28
31
17
24
34
8
21
32
16
7
10
14

> <PUBCHEM_MMFF94_PARTIAL_CHARGES>
41
1 0.3
10 -0.15
11 0.17
12 -0.15
13 -0.15
14 0.05
15 0.4
16 -0.3
17 -0.14
18 -0.15
19 -0.15
2 0.31
20 -0.15
21 -0.15
22 -0.15
23 -0.15
24 -0.15
25 -0.15
26 -0.15
27 -0.15
28 0.15
29 0.15
3 -0.71
30 0.15
31 0.27
34 0.15
35 0.15
36 0.15
37 0.15
38 0.15
39 0.15
4 -0.23
40 0.15
41 0.15
42 0.15
43 0.15
44 0.15
5 -0.42
7 -0.15
8 0.05
9 0.23

> <PUBCHEM_EFFECTIVE_ROTOR_COUNT>
4

> <PUBCHEM_PHARMACOPHORE_FEATURES>
7
1 1 donor
1 3 acceptor
5 1 3 6 7 9 rings
5 2 4 5 11 16 rings
6 14 18 19 22 23 24 rings
6 17 20 21 25 26 27 rings
6 6 7 8 10 12 13 rings

> <PUBCHEM_HEAVY_ATOM_COUNT>
27

> <PUBCHEM_ATOM_DEF_STEREO_COUNT>
0

> <PUBCHEM_ATOM_UDEF_STEREO_COUNT>
0

> <PUBCHEM_BOND_DEF_STEREO_COUNT>
0

> <PUBCHEM_BOND_UDEF_STEREO_COUNT>
0

> <PUBCHEM_ISOTOPIC_ATOM_COUNT>
0

> <PUBCHEM_COMPONENT_COUNT>
1

> <PUBCHEM_CACTVS_TAUTO_COUNT>
2

> <PUBCHEM_CONFORMER_ID>
017FF9F000000001

> <PUBCHEM_MMFF94_ENERGY>
63.5175

> <PUBCHEM_FEATURE_SELFOVERLAP>
35.615

> <PUBCHEM_SHAPE_FINGERPRINT>
100830 2 18261408745029671340
10670039 82 18412265068975243548
10928967 22 8789446002251844921
10937287 8 18338514119392666147
11273773 38 18194966244725506520
11315621 246 17631162181343935311
11374522 174 18048897199023634061
11796584 16 8934729924217426626
12107183 9 18118950405070454570
12390115 104 18343026553862430827
12422481 6 17240765030357474396
12596602 18 17458337568014308411
12788726 201 18263912384571858307
14251757 5 18341895241890697992
14251764 75 18268154145665198169
14347329 18 18412824685933602680
14429114 114 18266456697475748448
14739800 52 18266441283021941304
14790565 3 18408887313224728158
14840074 17 17822298972097936532
14848178 96 18125151637459617033
14932702 115 18131344198537897824
15001296 14 18192425505403107240
15163728 17 18270690765807420839
15183329 4 18342466976038598470
15575132 122 18409167727344685601
15705408 1 16259534208264706199
16992787 43 18339914941227251605
17844677 252 18410577279724280818
17899979 19 18260828242092796733
19611394 137 17755309203689556491
20567600 9 18335989701383666036
20691028 202 18127131870945217945
21049683 271 18265323097319655455
21585480 29 11098429221528720180
21796203 349 17540845088520882283
21859007 373 18129933594703574552
23516275 100 17621584442871337329
23536364 44 17489316278072487288
245318 6 18187942633198152180
249057 25 18115009880013405498
27425 322 17823700751023913273
283562 15 18409721847579154131
2838139 119 18408603691149413430
350125 39 18411698794970245497
4144715 1 18335146384408300106
44249763 50 17487321888997755432
550186 7 18202003252502998239
57591035 28 16972251964483052286
6034566 193 18269001895105739233
6058803 2 18262498334982443082
6608658 132 18198892798411138607
6673363 416 17831877003161521540
7808743 9 18410571777596419947

> <PUBCHEM_SHAPE_MULTIPOLES>
530.74
15.12
5.08
1.14
17.77
1.85
0.09
12.04
-3.63
-5.61
-0.35
0.6
0.6
-1.64

> <PUBCHEM_SHAPE_SELFOVERLAP>
1196.114

> <PUBCHEM_SHAPE_VOLUME>
280.9

> <PUBCHEM_COORDINATE_TYPE>
2
5
10

$$$$
49830474
  -OEChem-05102415023D

 48 52  0     0  0  0  0  0  0999 V2000
    2.2623    4.6902    0.5648 Cl  0  0  0  0  0  0  0  0  0  0  0  0
    5.4962   -0.6310    0.3048 O   0  0  0  0  0  0  0  0  0  0  0  0
   -3.8703   -0.7086   -0.9472 N   0  0  0  0  0  0  0  0  0  0  0  0
    2.8514   -3.9406    0.4876 N   0  0  0  0  0  0  0  0  0  0  0  0
    3.6315   -2.8481    0.4383 N   0  0  0  0  0  0  0  0  0  0  0  0
    3.1522   -0.5376    0.1044 N   0  0  0  0  0  0  0  0  0  0  0  0
   -3.4266   -2.4778    0.1931 N   0  0  0  0  0  0  0  0  0  0  0  0
   -4.4163   -1.6872   -0.2072 N   0  0  0  0  0  0  0  0  0  0  0  0
    1.4279   -2.3106    0.1334 C   0  0  0  0  0  0  0  0  0  0  0  0
    1.5179   -3.6866    0.3114 C   0  0  0  0  0  0  0  0  0  0  0  0
   -0.9601   -2.5539   -0.0960 C   0  0  0  0  0  0  0  0  0  0  0  0
    0.1683   -1.7246   -0.0749 C   0  0  0  0  0  0  0  0  0  0  0  0
    2.7621   -1.8582    0.2230 C   0  0  0  0  0  0  0  0  0  0  0  0
   -2.2583   -1.9759   -0.3093 C   0  0  0  0  0  0  0  0  0  0  0  0
    0.4059   -4.5313    0.2941 C   0  0  0  0  0  0  0  0  0  0  0  0
   -0.8411   -3.9331    0.0855 C   0  0  0  0  0  0  0  0  0  0  0  0
   -4.6947    0.3186   -1.5310 C   0  0  0  0  0  0  0  0  0  0  0  0
   -2.5195   -0.8448   -1.0413 C   0  0  0  0  0  0  0  0  0  0  0  0
   -5.1181    1.3781   -0.5441 C   0  0  0  0  0  0  0  0  0  0  0  0
    4.4550   -0.0020    0.1490 C   0  0  0  0  0  0  0  0  0  0  0  0
   -6.1532    1.1203    0.3546 C   0  0  0  0  0  0  0  0  0  0  0  0
   -4.4744    2.6155   -0.5303 C   0  0  0  0  0  0  0  0  0  0  0  0
    4.5564    1.4690   -0.0391 C   0  0  0  0  0  0  0  0  0  0  0  0
   -6.5447    2.0999    1.2673 C   0  0  0  0  0  0  0  0  0  0  0  0
   -4.8660    3.5952    0.3822 C   0  0  0  0  0  0  0  0  0  0  0  0
   -5.9009    3.3373    1.2812 C   0  0  0  0  0  0  0  0  0  0  0  0
    3.4864    2.2928    0.3103 C   0  0  0  0  0  0  0  0  0  0  0  0
    5.7224    2.0258   -0.5650 C   0  0  0  0  0  0  0  0  0  0  0  0
    3.5821    3.6732    0.1340 C   0  0  0  0  0  0  0  0  0  0  0  0
    5.8181    3.4061   -0.7416 C   0  0  0  0  0  0  0  0  0  0  0  0
    4.7481    4.2299   -0.3919 C   0  0  0  0  0  0  0  0  0  0  0  0
    0.0940   -0.6487   -0.2033 H   0  0  0  0  0  0  0  0  0  0  0  0
    0.5006   -5.6022    0.4346 H   0  0  0  0  0  0  0  0  0  0  0  0
   -1.7196   -4.5755    0.0644 H   0  0  0  0  0  0  0  0  0  0  0  0
   -5.5758   -0.1661   -1.9695 H   0  0  0  0  0  0  0  0  0  0  0  0
   -4.1400    0.7636   -2.3660 H   0  0  0  0  0  0  0  0  0  0  0  0
   -1.9014   -0.1556   -1.6003 H   0  0  0  0  0  0  0  0  0  0  0  0
    3.2943   -4.8372    0.6456 H   0  0  0  0  0  0  0  0  0  0  0  0
    2.3793    0.0928   -0.0867 H   0  0  0  0  0  0  0  0  0  0  0  0
   -6.6674    0.1630    0.3517 H   0  0  0  0  0  0  0  0  0  0  0  0
   -3.6652    2.8286   -1.2236 H   0  0  0  0  0  0  0  0  0  0  0  0
   -7.3514    1.8997    1.9663 H   0  0  0  0  0  0  0  0  0  0  0  0
   -4.3646    4.5586    0.3934 H   0  0  0  0  0  0  0  0  0  0  0  0
   -6.2058    4.1001    1.9917 H   0  0  0  0  0  0  0  0  0  0  0  0
    2.5797    1.8924    0.7556 H   0  0  0  0  0  0  0  0  0  0  0  0
    6.5657    1.4017   -0.8487 H   0  0  0  0  0  0  0  0  0  0  0  0
    6.7254    3.8395   -1.1523 H   0  0  0  0  0  0  0  0  0  0  0  0
    4.8369    5.3037   -0.5352 H   0  0  0  0  0  0  0  0  0  0  0  0
  1 29  1  0  0  0  0
  2 20  2  0  0  0  0
  3  8  1  0  0  0  0
  3 17  1  0  0  0  0
  3 18  1  0  0  0  0
  4  5  1  0  0  0  0
  4 10  1  0  0  0  0
  4 38  1  0  0  0  0
  5 13  2  0  0  0  0
  6 13  1  0  0  0  0
  6 20  1  0  0  0  0
  6 39  1  0  0  0  0
  7  8  2  0  0  0  0
  7 14  1  0  0  0  0
  9 10  2  0  0  0  0
  9 12  1  0  0  0  0
  9 13  1  0  0  0  0
 10 15  1  0  0  0  0
 11 12  2  0  0  0  0
 11 14  1  0  0  0  0
 11 16  1  0  0  0  0
 12 32  1  0  0  0  0
 14 18  2  0  0  0  0
 15 16  2  0  0  0  0
 15 33  1  0  0  0  0
 16 34  1  0  0  0  0
 17 19  1  0  0  0  0
 17 35  1  0  0  0  0
 17 36  1  0  0  0  0
 18 37  1  0  0  0  0
 19 21  2  0  0  0  0
 19 22  1  0  0  0  0
 20 23  1  0  0  0  0
 21 24  1  0  0  0  0
 21 40  1  0  0  0  0
 22 25  2  0  0  0  0
 22 41  1  0  0  0  0
 23 27  2  0  0  0  0
 23 28  1  0  0  0  0
 24 26  2  0  0  0  0
 24 42  1  0  0  0  0
 25 26  1  0  0  0  0
 25 43  1  0  0  0  0
 26 44  1  0  0  0  0
 27 29  1  0  0  0  0
 27 45  1  0  0  0  0
 28 30  2  0  0  0  0
 28 46  1  0  0  0  0
 29 31  2  0  0  0  0
 30 31  1  0  0  0  0
 30 47  1  0  0  0  0
 31 48  1  0  0  0  0
M  END
> <PUBCHEM_COMPOUND_CID>
49830474

> <PUBCHEM_CONFORMER_RMSD>
0.8

> <PUBCHEM_CONFORMER_DIVERSEORDER>
2
144
240
188
347
168
62
41
227
79
172
312
202
200
282
226
163
161
277
178
335
239
108
259
109
333
146
180
242
89
316
247
63
343
231
166
132
278
149
182
52
211
218
91
309
207
193
129
133
147
191
235
233
339
251
164
319
252
140
322
245
346
73
297
214
167
310
131
139
135
222
262
308
209
221
323
220
217
98
177
169
28
184
290
187
53
59
317
274
157
223
212
95
176
206
47
185
286
248
296
228
192
311
134
83
24
174
243
190
66
234
136
291
195
186
138
175
340
249
229
159
100
320
276
203
314
110
50
237
60
84
69
302
16
295
103
199
49
137
61
115
265
64
112
181
255
287
67
326
57
142
32
224
328
281
58
354
114
70
183
266
293
194
155
264
279
152
216
81
122
269
253
348
156
43
179
76
106
54
350
208
42
102
145
104
94
9
123
261
215
45
307
44
121
254
349
11
88
351
125
238
219
12
334
153
306
27
75
39
65
327
99
344
341
300
25
353
4
197
15
246
321
263
29
120
143
271
268
77
34
117
158
304
324
78
38
124
154
275
299
329
160
150
284
10
315
56
141
33
313
37
80
236
294
93
116
345
283
210
352
35
128
338
20
113
298
256
151
148
8
337
342
272
165
46
332
267
96
292
303
280
126
3
225
21
170
74
288
107
7
198
257
305
55
189
18
336
105
92
13
285
101
86
230
97
331
162
6
119
289
241
232
23
68
26
318
204
260
19
250
30
301
36
171
22
118
201
31
87
72
270
71
90
244
273
258
173
40
111
325
130
1
85
82
330
17
51
205
5
196
213
48
127
14

> <PUBCHEM_MMFF94_PARTIAL_CHARGES>
45
1 -0.18
10 -0.15
11 0.05
12 -0.15
13 0.35
14 0.17
15 -0.15
16 -0.15
17 0.4
18 -0.3
19 -0.14
2 -0.57
20 0.54
21 -0.15
22 -0.15
23 0.09
24 -0.15
25 -0.15
26 -0.15
27 -0.15
28 -0.15
29 0.18
3 0.31
30 -0.15
31 -0.15
32 0.15
33 0.15
34 0.15
37 0.15
38 0.27
39 0.37
4 0.3
40 0.15
41 0.15
42 0.15
43 0.15
44 0.15
45 0.15
46 0.15
47 0.15
48 0.15
5 -0.71
6 -0.49
7 -0.23
8 -0.42

> <PUBCHEM_EFFECTIVE_ROTOR_COUNT>
6

> <PUBCHEM_PHARMACOPHORE_FEATURES>
8
1 2 acceptor
1 4 donor
1 6 donor
5 3 7 8 14 18 rings
5 4 5 9 10 13 rings
6 19 21 22 24 25 26 rings
6 23 27 28 29 30 31 rings
6 9 10 11 12 15 16 rings

> <PUBCHEM_HEAVY_ATOM_COUNT>
31

> <PUBCHEM_ATOM_DEF_STEREO_COUNT>
0

> <PUBCHEM_ATOM_UDEF_STEREO_COUNT>
0

> <PUBCHEM_BOND_DEF_STEREO_COUNT>
0

> <PUBCHEM_BOND_UDEF_STEREO_COUNT>
0

> <PUBCHEM_ISOTOPIC_ATOM_COUNT>
0

> <PUBCHEM_COMPONENT_COUNT>
1

> <PUBCHEM_CACTVS_TAUTO_COUNT>
24

> <PUBCHEM_CONFORMER_ID>
02F85A4A00000002

> <PUBCHEM_MMFF94_ENERGY>
72.467

> <PUBCHEM_FEATURE_SELFOVERLAP>
40.69

> <PUBCHEM_SHAPE_FINGERPRINT>
100830 2 18411989056833586177
10439779 11 18194671795385674848
10917259 69 18337957892107990316
11059048 146 18339639061253049193
11070050 100 16878227446065235355
11101153 10 18413100672569888639
11479125 193 18410018753523826321
11828042 163 18341061735944189540
11973864 155 18048904044816316665
1200032 147 18113905983392792640
12107183 9 18116973646878482890
12925494 130 18409725197115068033
12975358 362 16983238388275357881
13590594 115 17401767423860935995
1361 2 18410578344749836448
13885169 86 18340772546688892889
13944108 23 18339083670990396460
14251764 75 18411141329141317845
14429114 114 18339919441044650473
14664723 55 18042975461603572804
14790565 3 18410574015226778231
14849402 71 18265052431752670746
15081414 286 17979349759924384295
15082195 135 18267843087043033751
15320291 9 17546995790314280765
15320295 198 17756707434671957189
15320467 1 18049722115874183844
15351339 4 18341323500250420529
16067689 134 18269569242483627181
16112460 7 18412548708083215312
16708801 149 18266439048837424992
16728433 281 17974019641808758668
16992779 147 18267034851449017105
17627616 140 18412262814017693329
19302320 297 18265897956014706259
20691028 202 18199182902663137265
21133410 58 16606039790656663740
22122407 14 18410016532898886235
245318 6 18187094982757864317
4066623 53 17696205707910410062
4173938 77 18268160751092296845
437795 171 18261667069800477157
437795 96 17753604638528203765
508180 173 18341343245000466130
5104073 3 18113898213460117459
5223283 242 17627537959058929038
53794403 172 18338803312230253534
550186 72 18050003595715509111
57724786 102 18339921498608330919
5951187 136 18200324212311115238
6058803 2 18268970056445251759
636783 98 14870466909831214765
7970288 3 8467473181795441438

> <PUBCHEM_SHAPE_MULTIPOLES>
604.08
16.72
7.91
0.96
9.12
0.14
0.08
20.97
-0.45
-4.71
-1.4
1.07
0.41
-2.5

> <PUBCHEM_SHAPE_SELFOVERLAP>
1338.383

> <PUBCHEM_SHAPE_VOLUME>
323.4

> <PUBCHEM_COORDINATE_TYPE>
2
5
10

$$$$
49830475
  -OEChem-05102415023D

 48 52  0     0  0  0  0  0  0999 V2000
   -5.1488    5.5887    0.3789 Cl  0  0  0  0  0  0  0  0  0  0  0  0
   -5.3555   -1.0240   -0.3639 O   0  0  0  0  0  0  0  0  0  0  0  0
    3.9853   -0.4702    0.9580 N   0  0  0  0  0  0  0  0  0  0  0  0
   -2.5041   -4.1619   -0.4368 N   0  0  0  0  0  0  0  0  0  0  0  0
   -3.3525   -3.1204   -0.4230 N   0  0  0  0  0  0  0  0  0  0  0  0
   -3.0241   -0.7760   -0.1490 N   0  0  0  0  0  0  0  0  0  0  0  0
    3.6653   -2.2941   -0.1367 N   0  0  0  0  0  0  0  0  0  0  0  0
    4.5991   -1.4314    0.2490 N   0  0  0  0  0  0  0  0  0  0  0  0
   -1.1904   -2.4354   -0.1170 C   0  0  0  0  0  0  0  0  0  0  0  0
   -1.1910   -3.8186   -0.2579 C   0  0  0  0  0  0  0  0  0  0  0  0
    1.2061   -2.5196    0.1364 C   0  0  0  0  0  0  0  0  0  0  0  0
    0.0275   -1.7648    0.0844 C   0  0  0  0  0  0  0  0  0  0  0  0
   -2.5497   -2.0717   -0.2287 C   0  0  0  0  0  0  0  0  0  0  0  0
    2.4630   -1.8544    0.3432 C   0  0  0  0  0  0  0  0  0  0  0  0
   -0.0278   -4.5899   -0.2094 C   0  0  0  0  0  0  0  0  0  0  0  0
    1.1767   -3.9079   -0.0081 C   0  0  0  0  0  0  0  0  0  0  0  0
    4.7374    0.6228    1.5194 C   0  0  0  0  0  0  0  0  0  0  0  0
    2.6451   -0.6898    1.0459 C   0  0  0  0  0  0  0  0  0  0  0  0
    5.1015    1.6803    0.5069 C   0  0  0  0  0  0  0  0  0  0  0  0
   -4.3578   -0.3259   -0.2178 C   0  0  0  0  0  0  0  0  0  0  0  0
    6.1588    1.4657   -0.3771 C   0  0  0  0  0  0  0  0  0  0  0  0
    4.3800    2.8729    0.4547 C   0  0  0  0  0  0  0  0  0  0  0  0
   -4.5543    1.1401   -0.0708 C   0  0  0  0  0  0  0  0  0  0  0  0
    6.4947    2.4435   -1.3134 C   0  0  0  0  0  0  0  0  0  0  0  0
    4.7157    3.8507   -0.4817 C   0  0  0  0  0  0  0  0  0  0  0  0
    5.7732    3.6360   -1.3656 C   0  0  0  0  0  0  0  0  0  0  0  0
   -5.7570    1.6359    0.4327 C   0  0  0  0  0  0  0  0  0  0  0  0
   -3.5352    2.0202   -0.4350 C   0  0  0  0  0  0  0  0  0  0  0  0
   -5.9408    3.0116    0.5716 C   0  0  0  0  0  0  0  0  0  0  0  0
   -3.7189    3.3959   -0.2961 C   0  0  0  0  0  0  0  0  0  0  0  0
   -4.9217    3.8916    0.2071 C   0  0  0  0  0  0  0  0  0  0  0  0
    0.0321   -0.6833    0.1839 H   0  0  0  0  0  0  0  0  0  0  0  0
   -0.0529   -5.6681   -0.3211 H   0  0  0  0  0  0  0  0  0  0  0  0
    2.0940   -4.4922    0.0368 H   0  0  0  0  0  0  0  0  0  0  0  0
    5.6436    0.2073    1.9773 H   0  0  0  0  0  0  0  0  0  0  0  0
    4.1482    1.0538    2.3379 H   0  0  0  0  0  0  0  0  0  0  0  0
    1.9794   -0.0266    1.5813 H   0  0  0  0  0  0  0  0  0  0  0  0
   -2.8876   -5.0888   -0.5734 H   0  0  0  0  0  0  0  0  0  0  0  0
   -2.2947   -0.0920    0.0288 H   0  0  0  0  0  0  0  0  0  0  0  0
    6.7333    0.5438   -0.3444 H   0  0  0  0  0  0  0  0  0  0  0  0
    3.5526    3.0520    1.1360 H   0  0  0  0  0  0  0  0  0  0  0  0
    7.3188    2.2769   -2.0010 H   0  0  0  0  0  0  0  0  0  0  0  0
    4.1536    4.7791   -0.5229 H   0  0  0  0  0  0  0  0  0  0  0  0
    6.0348    4.3975   -2.0945 H   0  0  0  0  0  0  0  0  0  0  0  0
   -6.5616    0.9673    0.7275 H   0  0  0  0  0  0  0  0  0  0  0  0
   -2.5971    1.6811   -0.8636 H   0  0  0  0  0  0  0  0  0  0  0  0
   -6.8828    3.3837    0.9663 H   0  0  0  0  0  0  0  0  0  0  0  0
   -2.9193    4.0706   -0.5911 H   0  0  0  0  0  0  0  0  0  0  0  0
  1 31  1  0  0  0  0
  2 20  2  0  0  0  0
  3  8  1  0  0  0  0
  3 17  1  0  0  0  0
  3 18  1  0  0  0  0
  4  5  1  0  0  0  0
  4 10  1  0  0  0  0
  4 38  1  0  0  0  0
  5 13  2  0  0  0  0
  6 13  1  0  0  0  0
  6 20  1  0  0  0  0
  6 39  1  0  0  0  0
  7  8  2  0  0  0  0
  7 14  1  0  0  0  0
  9 10  2  0  0  0  0
  9 12  1  0  0  0  0
  9 13  1  0  0  0  0
 10 15  1  0  0  0  0
 11 12  2  0  0  0  0
 11 14  1  0  0  0  0
 11 16  1  0  0  0  0
 12 32  1  0  0  0  0
 14 18  2  0  0  0  0
 15 16  2  0  0  0  0
 15 33  1  0  0  0  0
 16 34  1  0  0  0  0
 17 19  1  0  0  0  0
 17 35  1  0  0  0  0
 17 36  1  0  0  0  0
 18 37  1  0  0  0  0
 19 21  2  0  0  0  0
 19 22  1  0  0  0  0
 20 23  1  0  0  0  0
 21 24  1  0  0  0  0
 21 40  1  0  0  0  0
 22 25  2  0  0  0  0
 22 41  1  0  0  0  0
 23 27  2  0  0  0  0
 23 28  1  0  0  0  0
 24 26  2  0  0  0  0
 24 42  1  0  0  0  0
 25 26  1  0  0  0  0
 25 43  1  0  0  0  0
 26 44  1  0  0  0  0
 27 29  1  0  0  0  0
 27 45  1  0  0  0  0
 28 30  2  0  0  0  0
 28 46  1  0  0  0  0
 29 31  2  0  0  0  0
 29 47  1  0  0  0  0
 30 31  1  0  0  0  0
 30 48  1  0  0  0  0
M  END
> <PUBCHEM_COMPOUND_CID>
49830475

> <PUBCHEM_CONFORMER_RMSD>
0.8

> <PUBCHEM_CONFORMER_DIVERSEORDER>
1
50
118
59
29
84
95
78
112
85
34
68
75
73
51
60
56
79
54
111
102
7
71
130
52
11
70
117
49
41
47
64
106
37
21
57
88
82
110
55
31
107
136
77
137
89
109
6
104
93
134
97
35
22
62
74
23
125
69
40
96
138
94
30
26
14
45
108
81
92
86
135
80
25
66
53
100
28
67
72
105
101
76
39
63
2
13
114
17
116
61
12
115
113
139
83
46
3
43
122
19
124
126
90
65
44
98
121
133
103
4
131
36
87
132
91
129
33
24
128
127
58
42
119
9
16
10
38
48
5
32
123
27
120
99
18
15
8
20

> <PUBCHEM_MMFF94_PARTIAL_CHARGES>
45
1 -0.18
10 -0.15
11 0.05
12 -0.15
13 0.35
14 0.17
15 -0.15
16 -0.15
17 0.4
18 -0.3
19 -0.14
2 -0.57
20 0.54
21 -0.15
22 -0.15
23 0.09
24 -0.15
25 -0.15
26 -0.15
27 -0.15
28 -0.15
29 -0.15
3 0.31
30 -0.15
31 0.18
32 0.15
33 0.15
34 0.15
37 0.15
38 0.27
39 0.37
4 0.3
40 0.15
41 0.15
42 0.15
43 0.15
44 0.15
45 0.15
46 0.15
47 0.15
48 0.15
5 -0.71
6 -0.49
7 -0.23
8 -0.42

> <PUBCHEM_EFFECTIVE_ROTOR_COUNT>
6

> <PUBCHEM_PHARMACOPHORE_FEATURES>
8
1 2 acceptor
1 4 donor
1 6 donor
5 3 7 8 14 18 rings
5 4 5 9 10 13 rings
6 19 21 22 24 25 26 rings
6 23 27 28 29 30 31 rings
6 9 10 11 12 15 16 rings

> <PUBCHEM_HEAVY_ATOM_COUNT>
31

> <PUBCHEM_ATOM_DEF_STEREO_COUNT>
0

> <PUBCHEM_ATOM_UDEF_STEREO_COUNT>
0

> <PUBCHEM_BOND_DEF_STEREO_COUNT>
0

> <PUBCHEM_BOND_UDEF_STEREO_COUNT>
0

> <PUBCHEM_ISOTOPIC_ATOM_COUNT>
0

> <PUBCHEM_COMPONENT_COUNT>
1

> <PUBCHEM_CACTVS_TAUTO_COUNT>
24

> <PUBCHEM_CONFORMER_ID>
02F85A4B00000001

> <PUBCHEM_MMFF94_ENERGY>
72.472

> <PUBCHEM_FEATURE_SELFOVERLAP>
40.69

> <PUBCHEM_SHAPE_FINGERPRINT>
100830 2 18261401095576768604
10883706 163 18260822692283088821
10917259 128 18050556637849779352
10917259 69 18409733963908613148
11059845 2 18123155058094334930
11273773 38 18410855421695671528
11410812 94 18120392097597687380
11761917 142 18196644323562186032
11801155 225 18115604758522864212
11828042 163 18197506134809296316
11828042 53 18265906925020815684
11973864 155 18128276505198797169
12107183 9 18263346046189784498
13627167 48 18270983279082047736
13944108 23 17980765930905740512
14251764 75 18410578370424018825
14347329 18 18339918333391020402
14747282 540 17400368840990878174
14790565 3 18410854352026599440
14849402 71 18121217584756000202
14932702 115 18059572524846810272
15274700 147 17396442953189402316
15320467 1 18339077206653691825
15400415 2 18339920403333999033
155225 5 18194963169808146456
16708801 149 18340188709734875449
16990350 14 18410570648431529818
18393751 57 18334299760723691179
19053607 189 18339069389628454504
19302320 297 18192713336788289792
20691028 202 18340201899822105489
21133410 127 18043251249453233636
21859007 373 17912917577413286960
22033318 11 18041827442899881936
23516275 100 17045407429124076329
23569914 152 10348004186434077038
245318 6 18114757000354257084
24893989 43 11855544647269870637
3146121 3 18412824661098105001
3146122 72 17537980487416680709
437795 171 18190453853321472677
437795 96 17898841345401524133
4487111 67 18267300009450065000
4756088 132 11568193807380268833
50080093 196 17823128102770865712
5047190 36 18187093844634443476
5047190 48 18408600340347468276
5219985 13 18342172254554994167
53794403 172 18267587905423364927
550186 7 18129384967511608790
550186 72 18050565437393164727
5951187 136 18127982909913333310
59584819 99 16613649515882843305
6036956 94 18409160005558198237
6058803 2 18264465413061732970
6176135 31 18266169531123928713
636783 38 14811613368152939001
6608658 132 17910946169247820654
6673363 416 17327753193942890420
7808743 9 18411131480528633522
9849439 229 18408889512221889519

> <PUBCHEM_SHAPE_MULTIPOLES>
604.08
17.47
8.33
0.95
4.45
1.17
0.05
25.93
-0.77
-4.82
-1.11
1.2
0.48
-2.84

> <PUBCHEM_SHAPE_SELFOVERLAP>
1338.445

> <PUBCHEM_SHAPE_VOLUME>
323.5

> <PUBCHEM_COORDINATE_TYPE>
2
5
10

$$$$
49830470
  -OEChem-05102415023D

 49 53  0     0  0  0  0  0  0999 V2000
    5.0228   -1.7906    0.3843 O   0  0  0  0  0  0  0  0  0  0  0  0
   -4.1920   -0.1876   -0.9656 N   0  0  0  0  0  0  0  0  0  0  0  0
    1.8394   -4.5920    0.4162 N   0  0  0  0  0  0  0  0  0  0  0  0
    2.7986   -3.6514    0.4157 N   0  0  0  0  0  0  0  0  0  0  0  0
    2.7345   -1.2825    0.1635 N   0  0  0  0  0  0  0  0  0  0  0  0
   -4.0822   -2.0459    0.1123 N   0  0  0  0  0  0  0  0  0  0  0  0
   -4.9123   -1.0811   -0.2683 N   0  0  0  0  0  0  0  0  0  0  0  0
    5.7659    5.6502   -0.3724 N   0  0  0  0  0  0  0  0  0  0  0  0
    0.7276   -2.7270    0.1086 C   0  0  0  0  0  0  0  0  0  0  0  0
    0.5736   -4.1029    0.2360 C   0  0  0  0  0  0  0  0  0  0  0  0
   -1.6621   -2.5414   -0.1542 C   0  0  0  0  0  0  0  0  0  0  0  0
   -0.4071   -1.9231   -0.0906 C   0  0  0  0  0  0  0  0  0  0  0  0
    2.1184   -2.5180    0.2287 C   0  0  0  0  0  0  0  0  0  0  0  0
   -2.8362   -1.7384   -0.3590 C   0  0  0  0  0  0  0  0  0  0  0  0
   -0.6681   -4.7393    0.1758 C   0  0  0  0  0  0  0  0  0  0  0  0
   -1.7882   -3.9256   -0.0232 C   0  0  0  0  0  0  0  0  0  0  0  0
   -4.8151    0.9876   -1.5189 C   0  0  0  0  0  0  0  0  0  0  0  0
   -2.8842   -0.5542   -1.0508 C   0  0  0  0  0  0  0  0  0  0  0  0
   -5.0639    2.0695   -0.4975 C   0  0  0  0  0  0  0  0  0  0  0  0
    4.1097   -0.9844    0.2414 C   0  0  0  0  0  0  0  0  0  0  0  0
   -6.1427    1.9657    0.3806 C   0  0  0  0  0  0  0  0  0  0  0  0
   -4.2144    3.1738   -0.4310 C   0  0  0  0  0  0  0  0  0  0  0  0
    4.4689    0.4519    0.1095 C   0  0  0  0  0  0  0  0  0  0  0  0
   -6.3720    2.9661    1.3252 C   0  0  0  0  0  0  0  0  0  0  0  0
   -4.4435    4.1742    0.5137 C   0  0  0  0  0  0  0  0  0  0  0  0
   -5.5225    4.0703    1.3917 C   0  0  0  0  0  0  0  0  0  0  0  0
    5.7217    0.8154   -0.3848 C   0  0  0  0  0  0  0  0  0  0  0  0
    3.5523    1.4365    0.4786 C   0  0  0  0  0  0  0  0  0  0  0  0
    6.0577    2.1633   -0.5098 C   0  0  0  0  0  0  0  0  0  0  0  0
    3.8885    2.7843    0.3537 C   0  0  0  0  0  0  0  0  0  0  0  0
    5.1411    3.1479   -0.1407 C   0  0  0  0  0  0  0  0  0  0  0  0
    5.4858    4.5288   -0.2685 C   0  0  0  0  0  0  0  0  0  0  0  0
   -0.2908   -0.8469   -0.1795 H   0  0  0  0  0  0  0  0  0  0  0  0
   -0.7637   -5.8146    0.2770 H   0  0  0  0  0  0  0  0  0  0  0  0
   -2.7646   -4.4037   -0.0772 H   0  0  0  0  0  0  0  0  0  0  0  0
   -5.7599    0.6798   -1.9842 H   0  0  0  0  0  0  0  0  0  0  0  0
   -4.1778    1.3579   -2.3311 H   0  0  0  0  0  0  0  0  0  0  0  0
   -2.1464    0.0357   -1.5773 H   0  0  0  0  0  0  0  0  0  0  0  0
    2.1167   -5.5570    0.5451 H   0  0  0  0  0  0  0  0  0  0  0  0
    2.0866   -0.5199   -0.0103 H   0  0  0  0  0  0  0  0  0  0  0  0
   -6.8160    1.1140    0.3368 H   0  0  0  0  0  0  0  0  0  0  0  0
   -3.3691    3.2660   -1.1076 H   0  0  0  0  0  0  0  0  0  0  0  0
   -7.2127    2.8859    2.0082 H   0  0  0  0  0  0  0  0  0  0  0  0
   -3.7817    5.0337    0.5660 H   0  0  0  0  0  0  0  0  0  0  0  0
   -5.7010    4.8493    2.1271 H   0  0  0  0  0  0  0  0  0  0  0  0
    6.4483    0.0642   -0.6832 H   0  0  0  0  0  0  0  0  0  0  0  0
    2.5803    1.1998    0.9007 H   0  0  0  0  0  0  0  0  0  0  0  0
    7.0377    2.4311   -0.8977 H   0  0  0  0  0  0  0  0  0  0  0  0
    3.1665    3.5407    0.6527 H   0  0  0  0  0  0  0  0  0  0  0  0
  1 20  2  0  0  0  0
  2  7  1  0  0  0  0
  2 17  1  0  0  0  0
  2 18  1  0  0  0  0
  3  4  1  0  0  0  0
  3 10  1  0  0  0  0
  3 39  1  0  0  0  0
  4 13  2  0  0  0  0
  5 13  1  0  0  0  0
  5 20  1  0  0  0  0
  5 40  1  0  0  0  0
  6  7  2  0  0  0  0
  6 14  1  0  0  0  0
  8 32  3  0  0  0  0
  9 10  2  0  0  0  0
  9 12  1  0  0  0  0
  9 13  1  0  0  0  0
 10 15  1  0  0  0  0
 11 12  2  0  0  0  0
 11 14  1  0  0  0  0
 11 16  1  0  0  0  0
 12 33  1  0  0  0  0
 14 18  2  0  0  0  0
 15 16  2  0  0  0  0
 15 34  1  0  0  0  0
 16 35  1  0  0  0  0
 17 19  1  0  0  0  0
 17 36  1  0  0  0  0
 17 37  1  0  0  0  0
 18 38  1  0  0  0  0
 19 21  2  0  0  0  0
 19 22  1  0  0  0  0
 20 23  1  0  0  0  0
 21 24  1  0  0  0  0
 21 41  1  0  0  0  0
 22 25  2  0  0  0  0
 22 42  1  0  0  0  0
 23 27  2  0  0  0  0
 23 28  1  0  0  0  0
 24 26  2  0  0  0  0
 24 43  1  0  0  0  0
 25 26  1  0  0  0  0
 25 44  1  0  0  0  0
 26 45  1  0  0  0  0
 27 29  1  0  0  0  0
 27 46  1  0  0  0  0
 28 30  2  0  0  0  0
 28 47  1  0  0  0  0
 29 31  2  0  0  0  0
 29 48  1  0  0  0  0
 30 31  1  0  0  0  0
 30 49  1  0  0  0  0
 31 32  1  0  0  0  0
M  END
> <PUBCHEM_COMPOUND_CID>
49830470

> <PUBCHEM_CONFORMER_RMSD>
0.8

> <PUBCHEM_CONFORMER_DIVERSEORDER>
1
27
64
78
86
119
120
65
105
83
110
50
58
94
59
134
45
44
57
131
11
98
54
41
28
117
84
114
51
129
22
111
95
72
60
15
101
109
90
70
93
61
99
49
92
125
79
38
33
97
52
130
96
48
73
88
87
128
26
55
106
19
81
56
132
85
108
75
8
30
25
53
133
76
82
126
5
46
31
104
112
74
47
40
102
29
21
121
124
6
63
35
115
32
116
67
91
68
107
23
123
77
62
34
113
36
9
12
16
71
4
122
20
103
3
66
24
39
80
69
127
100
2
37
42
118
43
7
14
17
89
18
13
10

> <PUBCHEM_MMFF94_PARTIAL_CHARGES>
46
1 -0.57
10 -0.15
11 0.05
12 -0.15
13 0.35
14 0.17
15 -0.15
16 -0.15
17 0.4
18 -0.3
19 -0.14
2 0.31
20 0.54
21 -0.15
22 -0.15
23 0.09
24 -0.15
25 -0.15
26 -0.15
27 -0.15
28 -0.15
29 -0.15
3 0.3
30 -0.15
31 0.07
32 0.48
33 0.15
34 0.15
35 0.15
38 0.15
39 0.27
4 -0.71
40 0.37
41 0.15
42 0.15
43 0.15
44 0.15
45 0.15
46 0.15
47 0.15
48 0.15
49 0.15
5 -0.49
6 -0.23
7 -0.42
8 -0.56

> <PUBCHEM_EFFECTIVE_ROTOR_COUNT>
6

> <PUBCHEM_PHARMACOPHORE_FEATURES>
9
1 1 acceptor
1 3 donor
1 5 donor
1 8 acceptor
5 2 6 7 14 18 rings
5 3 4 9 10 13 rings
6 19 21 22 24 25 26 rings
6 23 27 28 29 30 31 rings
6 9 10 11 12 15 16 rings

> <PUBCHEM_HEAVY_ATOM_COUNT>
32

> <PUBCHEM_ATOM_DEF_STEREO_COUNT>
0

> <PUBCHEM_ATOM_UDEF_STEREO_COUNT>
0

> <PUBCHEM_BOND_DEF_STEREO_COUNT>
0

> <PUBCHEM_BOND_UDEF_STEREO_COUNT>
0

> <PUBCHEM_ISOTOPIC_ATOM_COUNT>
0

> <PUBCHEM_COMPONENT_COUNT>
1

> <PUBCHEM_CACTVS_TAUTO_COUNT>
24

> <PUBCHEM_CONFORMER_ID>
02F85A4600000001

> <PUBCHEM_MMFF94_ENERGY>
72.9867

> <PUBCHEM_FEATURE_SELFOVERLAP>
45.764

> <PUBCHEM_SHAPE_FINGERPRINT>
100830 2 18342181025026328105
10675989 125 18411136892762127528
10917259 69 18410015477577076116
11101153 10 18341041923243695917
11408170 253 17397557879813532524
11479125 193 18410862074642017073
11761917 142 17980753055069353472
11828042 163 18341623560631854060
11828042 53 18121791792679418244
11973864 155 18270135564060008713
12107183 9 18189313789598191130
13885169 86 18268995289508879929
13944108 23 18197500619316926756
14251764 75 18410858750279098713
14429114 114 18339356469553056616
14664723 55 18187654660463255364
14790565 3 18410573972266549262
14849402 71 18193557757392402958
15320295 198 17613720311150688733
15320467 1 17977383068492611340
15400415 2 18337387244581404268
155225 5 18050004695100289340
15980000 95 17760642569682003834
16067689 134 17981899540195029148
16708801 149 18338776971079906353
16728433 281 18046639069129696876
16990350 14 18410853265975211720
16992779 147 18123481488029417641
19302320 297 18194120715908989467
20691028 202 18412824672901403545
22122407 14 18337957796500066275
3525247 154 17695628841851837176
3552219 110 17774727563263735291
3918712 181 18336815481455247029
4173938 77 17909564860609989265
437795 171 18261099764602518268
44575985 301 18272085037695905328
4487111 67 18193833971186994496
4756088 132 12571643372265139860
5047190 92 18411140260064057593
5104073 3 18042405721396890691
5223283 242 17483702021061281422
53794403 172 18267589017719661198
550186 72 18194117645741056599
57724786 102 18196368118214538607
5951187 136 18128827334727667566
6036956 94 17975422630670456068
6176135 31 18337945706114620840
6201320 215 17835515304534667592
7970288 3 9259824141624200430

> <PUBCHEM_SHAPE_MULTIPOLES>
617.81
17.77
8.87
0.94
0.73
1.24
0.03
27.92
-0.37
-3.68
-1.32
1.22
0.52
-2.9

> <PUBCHEM_SHAPE_SELFOVERLAP>
1379.289

> <PUBCHEM_SHAPE_VOLUME>
327

> <PUBCHEM_COORDINATE_TYPE>
2
5
10

$$$$
49830457
  -OEChem-05102415023D

 56 60  0     0  0  0  0  0  0999 V2000
    4.6192   -2.0805    0.8600 O   0  0  0  0  0  0  0  0  0  0  0  0
    7.5413    1.7652   -0.6027 O   0  0  0  0  0  0  0  0  0  0  0  0
    5.9079    3.9891   -0.2639 O   0  0  0  0  0  0  0  0  0  0  0  0
   -4.2371    0.5580   -1.1390 N   0  0  0  0  0  0  0  0  0  0  0  0
    1.1236   -4.4788    0.7546 N   0  0  0  0  0  0  0  0  0  0  0  0
    2.4506   -1.3370    0.3236 N   0  0  0  0  0  0  0  0  0  0  0  0
    2.1880   -3.6599    0.7870 N   0  0  0  0  0  0  0  0  0  0  0  0
   -4.1432   -1.5511   -1.5519 N   0  0  0  0  0  0  0  0  0  0  0  0
   -4.8739   -0.4582   -1.7433 N   0  0  0  0  0  0  0  0  0  0  0  0
    0.2955   -2.5388    0.1549 C   0  0  0  0  0  0  0  0  0  0  0  0
   -0.0435   -3.8678    0.3823 C   0  0  0  0  0  0  0  0  0  0  0  0
   -2.0092   -2.1065   -0.4071 C   0  0  0  0  0  0  0  0  0  0  0  0
   -0.7005   -1.6337   -0.2478 C   0  0  0  0  0  0  0  0  0  0  0  0
    1.6804   -2.4804    0.4220 C   0  0  0  0  0  0  0  0  0  0  0  0
   -3.0436   -1.1985   -0.8200 C   0  0  0  0  0  0  0  0  0  0  0  0
   -1.3417   -4.3598    0.2296 C   0  0  0  0  0  0  0  0  0  0  0  0
   -2.3221   -3.4467   -0.1720 C   0  0  0  0  0  0  0  0  0  0  0  0
   -4.7849    1.8901   -1.1685 C   0  0  0  0  0  0  0  0  0  0  0  0
   -3.0841    0.1454   -0.5453 C   0  0  0  0  0  0  0  0  0  0  0  0
   -5.9168    2.0928   -0.1920 C   0  0  0  0  0  0  0  0  0  0  0  0
    3.8359   -1.1930    0.5392 C   0  0  0  0  0  0  0  0  0  0  0  0
    4.3853    0.1717    0.3266 C   0  0  0  0  0  0  0  0  0  0  0  0
   -7.1909    1.6104   -0.4910 C   0  0  0  0  0  0  0  0  0  0  0  0
   -5.6890    2.7625    1.0103 C   0  0  0  0  0  0  0  0  0  0  0  0
    5.7204    0.3365   -0.0425 C   0  0  0  0  0  0  0  0  0  0  0  0
    3.5659    1.2876    0.4967 C   0  0  0  0  0  0  0  0  0  0  0  0
    6.2360    1.6172   -0.2417 C   0  0  0  0  0  0  0  0  0  0  0  0
    5.4166    2.7331   -0.0716 C   0  0  0  0  0  0  0  0  0  0  0  0
    4.0816    2.5683    0.2977 C   0  0  0  0  0  0  0  0  0  0  0  0
   -8.2373    1.7975    0.4123 C   0  0  0  0  0  0  0  0  0  0  0  0
   -6.7352    2.9495    1.9135 C   0  0  0  0  0  0  0  0  0  0  0  0
   -8.0094    2.4670    1.6146 C   0  0  0  0  0  0  0  0  0  0  0  0
    8.3102    0.5735   -0.7555 C   0  0  0  0  0  0  0  0  0  0  0  0
    5.0040    5.0752   -0.0694 C   0  0  0  0  0  0  0  0  0  0  0  0
   -0.4364   -0.5973   -0.4366 H   0  0  0  0  0  0  0  0  0  0  0  0
   -1.5827   -5.4007    0.4137 H   0  0  0  0  0  0  0  0  0  0  0  0
   -3.3409   -3.8103   -0.2931 H   0  0  0  0  0  0  0  0  0  0  0  0
    1.2614   -5.4514    0.9993 H   0  0  0  0  0  0  0  0  0  0  0  0
   -5.1254    2.0911   -2.1919 H   0  0  0  0  0  0  0  0  0  0  0  0
   -3.9690    2.5959   -0.9709 H   0  0  0  0  0  0  0  0  0  0  0  0
   -2.4348    0.8184   -0.0019 H   0  0  0  0  0  0  0  0  0  0  0  0
    1.9267   -0.5263    0.0077 H   0  0  0  0  0  0  0  0  0  0  0  0
   -7.3845    1.0917   -1.4260 H   0  0  0  0  0  0  0  0  0  0  0  0
   -4.7008    3.1416    1.2565 H   0  0  0  0  0  0  0  0  0  0  0  0
    6.3139   -0.5623   -0.1695 H   0  0  0  0  0  0  0  0  0  0  0  0
    2.5317    1.2073    0.8179 H   0  0  0  0  0  0  0  0  0  0  0  0
    3.3898    3.3886    0.4553 H   0  0  0  0  0  0  0  0  0  0  0  0
   -9.2297    1.4230    0.1791 H   0  0  0  0  0  0  0  0  0  0  0  0
   -6.5579    3.4704    2.8499 H   0  0  0  0  0  0  0  0  0  0  0  0
   -8.8241    2.6127    2.3179 H   0  0  0  0  0  0  0  0  0  0  0  0
    8.4002    0.0263    0.1891 H   0  0  0  0  0  0  0  0  0  0  0  0
    7.9269   -0.0533   -1.5679 H   0  0  0  0  0  0  0  0  0  0  0  0
    9.3222    0.8786   -1.0420 H   0  0  0  0  0  0  0  0  0  0  0  0
    4.1767    5.0454   -0.7867 H   0  0  0  0  0  0  0  0  0  0  0  0
    4.6555    5.1293    0.9676 H   0  0  0  0  0  0  0  0  0  0  0  0
    5.5613    5.9971   -0.2656 H   0  0  0  0  0  0  0  0  0  0  0  0
  1 21  2  0  0  0  0
  2 27  1  0  0  0  0
  2 33  1  0  0  0  0
  3 28  1  0  0  0  0
  3 34  1  0  0  0  0
  4  9  1  0  0  0  0
  4 18  1  0  0  0  0
  4 19  1  0  0  0  0
  5  7  1  0  0  0  0
  5 11  1  0  0  0  0
  5 38  1  0  0  0  0
  6 14  1  0  0  0  0
  6 21  1  0  0  0  0
  6 42  1  0  0  0  0
  7 14  2  0  0  0  0
  8  9  2  0  0  0  0
  8 15  1  0  0  0  0
 10 11  2  0  0  0  0
 10 13  1  0  0  0  0
 10 14  1  0  0  0  0
 11 16  1  0  0  0  0
 12 13  2  0  0  0  0
 12 15  1  0  0  0  0
 12 17  1  0  0  0  0
 13 35  1  0  0  0  0
 15 19  2  0  0  0  0
 16 17  2  0  0  0  0
 16 36  1  0  0  0  0
 17 37  1  0  0  0  0
 18 20  1  0  0  0  0
 18 39  1  0  0  0  0
 18 40  1  0  0  0  0
 19 41  1  0  0  0  0
 20 23  2  0  0  0  0
 20 24  1  0  0  0  0
 21 22  1  0  0  0  0
 22 25  2  0  0  0  0
 22 26  1  0  0  0  0
 23 30  1  0  0  0  0
 23 43  1  0  0  0  0
 24 31  2  0  0  0  0
 24 44  1  0  0  0  0
 25 27  1  0  0  0  0
 25 45  1  0  0  0  0
 26 29  2  0  0  0  0
 26 46  1  0  0  0  0
 27 28  2  0  0  0  0
 28 29  1  0  0  0  0
 29 47  1  0  0  0  0
 30 32  2  0  0  0  0
 30 48  1  0  0  0  0
 31 32  1  0  0  0  0
 31 49  1  0  0  0  0
 32 50  1  0  0  0  0
 33 51  1  0  0  0  0
 33 52  1  0  0  0  0
 33 53  1  0  0  0  0
 34 54  1  0  0  0  0
 34 55  1  0  0  0  0
 34 56  1  0  0  0  0
M  END
> <PUBCHEM_COMPOUND_CID>
49830457

> <PUBCHEM_CONFORMER_RMSD>
1.2

> <PUBCHEM_CONFORMER_DIVERSEORDER>
3
19
71
62
50
55
66
82
31
59
43
21
16
68
67
58
30
7
60
70
80
23
48
37
57
15
22
41
72
18
24
35
65
61
12
75
39
6
74
69
34
53
20
79
8
49
17
46
33
76
32
54
56
29
78
26
73
44
64
10
63
25
51
11
5
40
77
45
47
2
36
52
28
42
27
1
13
38
81
14
9
4

> <PUBCHEM_MMFF94_PARTIAL_CHARGES>
47
1 -0.57
11 -0.15
12 0.05
13 -0.15
14 0.35
15 0.17
16 -0.15
17 -0.15
18 0.4
19 -0.3
2 -0.36
20 -0.14
21 0.54
22 0.09
23 -0.15
24 -0.15
25 -0.15
26 -0.15
27 0.08
28 0.08
29 -0.15
3 -0.36
30 -0.15
31 -0.15
32 -0.15
33 0.28
34 0.28
35 0.15
36 0.15
37 0.15
38 0.27
4 0.31
41 0.15
42 0.37
43 0.15
44 0.15
45 0.15
46 0.15
47 0.15
48 0.15
49 0.15
5 0.3
50 0.15
6 -0.49
7 -0.71
8 -0.23
9 -0.42

> <PUBCHEM_EFFECTIVE_ROTOR_COUNT>
8

> <PUBCHEM_PHARMACOPHORE_FEATURES>
10
1 1 acceptor
1 2 acceptor
1 3 acceptor
1 5 donor
1 6 donor
5 4 8 9 15 19 rings
5 5 7 10 11 14 rings
6 10 11 12 13 16 17 rings
6 20 23 24 30 31 32 rings
6 22 25 26 27 28 29 rings

> <PUBCHEM_HEAVY_ATOM_COUNT>
34

> <PUBCHEM_ATOM_DEF_STEREO_COUNT>
0

> <PUBCHEM_ATOM_UDEF_STEREO_COUNT>
0

> <PUBCHEM_BOND_DEF_STEREO_COUNT>
0

> <PUBCHEM_BOND_UDEF_STEREO_COUNT>
0

> <PUBCHEM_ISOTOPIC_ATOM_COUNT>
0

> <PUBCHEM_COMPONENT_COUNT>
1

> <PUBCHEM_CACTVS_TAUTO_COUNT>
24

> <PUBCHEM_CONFORMER_ID>
02F85A3900000003

> <PUBCHEM_MMFF94_ENERGY>
101.7579

> <PUBCHEM_FEATURE_SELFOVERLAP>
50.844

> <PUBCHEM_SHAPE_FINGERPRINT>
10675989 125 18411134706618382272
10920273 25 18201167568100312881
11211813 128 7997973480053828848
11273773 42 18343297059909321269
11410812 94 14836134200096829722
11479125 193 18409450293296208249
11828042 163 18412553094415670292
11828042 58 18113912542135102334
1200032 147 18259988158831204362
12013929 29 18339361976498001332
12107183 9 18116126992818340754
12677640 9 18194119844811025157
13885169 86 18411418389218864785
13944108 23 18270116786683938376
14251764 75 18410011048230774289
14394314 77 18410576193377519693
14400156 260 18260263059104827056
14664723 55 18412549829085386829
14790565 3 18410005503602003565
14849402 71 18193837033504282707
15064981 194 18118130387869532414
15274700 21 18266181811316246995
15297060 5 18411136944101183936
15320467 1 18335974329269258028
15350500 16 10087637070495350004
15357212 105 18187376466793773742
15400415 2 18263636432891032220
15685185 35 18411985788421243065
16067689 134 18411705382828397444
16112460 7 18341052925847972200
16126227 98 18412545414501837667
16728433 281 18191031312544565700
16992779 147 18265055738950939547
17899979 129 18272093747335478878
19302320 297 18336823079130678210
19309040 13 18202563990257975623
20691028 202 18411699928034711056
21133410 58 16534823314476680561
21792964 463 17771358478709150449
21987483 16 17968100790569842059
23522609 53 17916866808447360137
23569914 152 7955594801404705131
23729398 52 18048602512917567342
2747138 104 17317610134330959810
3610482 184 17560222632576748231
397830 11 18187937115235672107
4760202 70 18343008992827828407
5223283 242 17771081392593514726
5911458 16 18130228160292522105
5951187 136 18271814479992719726

> <PUBCHEM_SHAPE_MULTIPOLES>
652.21
24.12
6.74
1.19
7.53
1.85
0.02
-33.8
0.97
-3.19
1.51
2.17
-0.32
-3.56

> <PUBCHEM_SHAPE_SELFOVERLAP>
1445.061

> <PUBCHEM_SHAPE_VOLUME>
350.8

> <PUBCHEM_COORDINATE_TYPE>
2
5
10

$$$$
49830476
  -OEChem-05102415023D

 56 60  0     0  0  0  0  0  0999 V2000
    4.6724   -2.3378    0.4064 O   0  0  0  0  0  0  0  0  0  0  0  0
   -4.3689    0.0385   -0.9764 N   0  0  0  0  0  0  0  0  0  0  0  0
    1.2646   -4.8614    0.4169 N   0  0  0  0  0  0  0  0  0  0  0  0
    2.4360   -1.6383    0.1777 N   0  0  0  0  0  0  0  0  0  0  0  0
    2.2995   -4.0049    0.4231 N   0  0  0  0  0  0  0  0  0  0  0  0
   -4.4205   -1.8254    0.0963 N   0  0  0  0  0  0  0  0  0  0  0  0
   -5.1648   -0.7931   -0.2847 N   0  0  0  0  0  0  0  0  0  0  0  0
    5.6656    3.9036   -0.2177 N   0  0  0  0  0  0  0  0  0  0  0  0
    0.3150   -2.9087    0.1103 C   0  0  0  0  0  0  0  0  0  0  0  0
    0.0452   -4.2671    0.2329 C   0  0  0  0  0  0  0  0  0  0  0  0
   -2.0495   -2.5220   -0.1617 C   0  0  0  0  0  0  0  0  0  0  0  0
   -0.7472   -2.0116   -0.0911 C   0  0  0  0  0  0  0  0  0  0  0  0
    1.7179   -2.8178    0.2367 C   0  0  0  0  0  0  0  0  0  0  0  0
   -3.1510   -1.6225   -0.3689 C   0  0  0  0  0  0  0  0  0  0  0  0
   -1.2453   -4.7966    0.1657 C   0  0  0  0  0  0  0  0  0  0  0  0
   -2.2922   -3.8910   -0.0354 C   0  0  0  0  0  0  0  0  0  0  0  0
   -4.8885    1.2633   -1.5288 C   0  0  0  0  0  0  0  0  0  0  0  0
   -3.0962   -0.4367   -1.0574 C   0  0  0  0  0  0  0  0  0  0  0  0
   -5.0498    2.3597   -0.5051 C   0  0  0  0  0  0  0  0  0  0  0  0
    4.3103   -0.0558    0.1360 C   0  0  0  0  0  0  0  0  0  0  0  0
    3.8311   -1.4572    0.2622 C   0  0  0  0  0  0  0  0  0  0  0  0
    5.2113    2.5740   -0.0988 C   0  0  0  0  0  0  0  0  0  0  0  0
    5.5924    0.2015   -0.3499 C   0  0  0  0  0  0  0  0  0  0  0  0
    3.4788    1.0018    0.5042 C   0  0  0  0  0  0  0  0  0  0  0  0
    6.0429    1.5163   -0.4673 C   0  0  0  0  0  0  0  0  0  0  0  0
    3.9293    2.3167    0.3869 C   0  0  0  0  0  0  0  0  0  0  0  0
   -6.1373    2.3447    0.3682 C   0  0  0  0  0  0  0  0  0  0  0  0
   -4.1108    3.3884   -0.4318 C   0  0  0  0  0  0  0  0  0  0  0  0
   -6.2857    3.3584    1.3149 C   0  0  0  0  0  0  0  0  0  0  0  0
   -4.2589    4.4020    0.5149 C   0  0  0  0  0  0  0  0  0  0  0  0
    6.9955    4.1827   -0.7217 C   0  0  0  0  0  0  0  0  0  0  0  0
    4.8057    5.0093    0.1555 C   0  0  0  0  0  0  0  0  0  0  0  0
   -5.3466    4.3870    1.3881 C   0  0  0  0  0  0  0  0  0  0  0  0
   -0.5405   -0.9488   -0.1763 H   0  0  0  0  0  0  0  0  0  0  0  0
   -1.4315   -5.8603    0.2634 H   0  0  0  0  0  0  0  0  0  0  0  0
   -3.3051   -4.2851   -0.0948 H   0  0  0  0  0  0  0  0  0  0  0  0
    1.4591   -5.8467    0.5440 H   0  0  0  0  0  0  0  0  0  0  0  0
   -5.8538    1.0374   -1.9988 H   0  0  0  0  0  0  0  0  0  0  0  0
   -4.2188    1.5808   -2.3373 H   0  0  0  0  0  0  0  0  0  0  0  0
   -2.3091    0.0904   -1.5791 H   0  0  0  0  0  0  0  0  0  0  0  0
    1.8554   -0.8235    0.0036 H   0  0  0  0  0  0  0  0  0  0  0  0
    6.2538   -0.6081   -0.6471 H   0  0  0  0  0  0  0  0  0  0  0  0
    2.4879    0.8466    0.9202 H   0  0  0  0  0  0  0  0  0  0  0  0
    7.0472    1.6645   -0.8517 H   0  0  0  0  0  0  0  0  0  0  0  0
    3.2479    3.1041    0.6939 H   0  0  0  0  0  0  0  0  0  0  0  0
   -6.8797    1.5527    0.3191 H   0  0  0  0  0  0  0  0  0  0  0  0
   -3.2577    3.4109   -1.1047 H   0  0  0  0  0  0  0  0  0  0  0  0
   -7.1331    3.3474    1.9941 H   0  0  0  0  0  0  0  0  0  0  0  0
   -3.5274    5.2027    0.5724 H   0  0  0  0  0  0  0  0  0  0  0  0
    7.7639    3.7381   -0.0794 H   0  0  0  0  0  0  0  0  0  0  0  0
    7.1155    3.8149   -1.7468 H   0  0  0  0  0  0  0  0  0  0  0  0
    7.1999    5.2589   -0.7512 H   0  0  0  0  0  0  0  0  0  0  0  0
    3.8947    5.0255   -0.4532 H   0  0  0  0  0  0  0  0  0  0  0  0
    4.5380    4.9619    1.2169 H   0  0  0  0  0  0  0  0  0  0  0  0
    5.2992    5.9756    0.0022 H   0  0  0  0  0  0  0  0  0  0  0  0
   -5.4621    5.1763    2.1251 H   0  0  0  0  0  0  0  0  0  0  0  0
  1 21  2  0  0  0  0
  2  7  1  0  0  0  0
  2 17  1  0  0  0  0
  2 18  1  0  0  0  0
  3  5  1  0  0  0  0
  3 10  1  0  0  0  0
  3 37  1  0  0  0  0
  4 13  1  0  0  0  0
  4 21  1  0  0  0  0
  4 41  1  0  0  0  0
  5 13  2  0  0  0  0
  6  7  2  0  0  0  0
  6 14  1  0  0  0  0
  8 22  1  0  0  0  0
  8 31  1  0  0  0  0
  8 32  1  0  0  0  0
  9 10  2  0  0  0  0
  9 12  1  0  0  0  0
  9 13  1  0  0  0  0
 10 15  1  0  0  0  0
 11 12  2  0  0  0  0
 11 14  1  0  0  0  0
 11 16  1  0  0  0  0
 12 34  1  0  0  0  0
 14 18  2  0  0  0  0
 15 16  2  0  0  0  0
 15 35  1  0  0  0  0
 16 36  1  0  0  0  0
 17 19  1  0  0  0  0
 17 38  1  0  0  0  0
 17 39  1  0  0  0  0
 18 40  1  0  0  0  0
 19 27  2  0  0  0  0
 19 28  1  0  0  0  0
 20 21  1  0  0  0  0
 20 23  2  0  0  0  0
 20 24  1  0  0  0  0
 22 25  2  0  0  0  0
 22 26  1  0  0  0  0
 23 25  1  0  0  0  0
 23 42  1  0  0  0  0
 24 26  2  0  0  0  0
 24 43  1  0  0  0  0
 25 44  1  0  0  0  0
 26 45  1  0  0  0  0
 27 29  1  0  0  0  0
 27 46  1  0  0  0  0
 28 30  2  0  0  0  0
 28 47  1  0  0  0  0
 29 33  2  0  0  0  0
 29 48  1  0  0  0  0
 30 33  1  0  0  0  0
 30 49  1  0  0  0  0
 31 50  1  0  0  0  0
 31 51  1  0  0  0  0
 31 52  1  0  0  0  0
 32 53  1  0  0  0  0
 32 54  1  0  0  0  0
 32 55  1  0  0  0  0
 33 56  1  0  0  0  0
M  END
> <PUBCHEM_COMPOUND_CID>
49830476

> <PUBCHEM_CONFORMER_RMSD>
1

> <PUBCHEM_CONFORMER_DIVERSEORDER>
1
27
36
54
30
12
41
42
35
39
37
21
46
9
34
49
28
51
48
15
25
14
26
6
31
18
33
53
24
52
16
11
38
23
3
50
45
19
29
43
40
4
47
44
22
7
32
2
17
8
5
20
13
10

> <PUBCHEM_MMFF94_PARTIAL_CHARGES>
47
1 -0.57
10 -0.15
11 0.05
12 -0.15
13 0.35
14 0.17
15 -0.15
16 -0.15
17 0.4
18 -0.3
19 -0.14
2 0.31
20 0.09
21 0.54
22 0.1
23 -0.15
24 -0.15
25 -0.15
26 -0.15
27 -0.15
28 -0.15
29 -0.15
3 0.3
30 -0.15
31 0.37
32 0.37
33 -0.15
34 0.15
35 0.15
36 0.15
37 0.27
4 -0.49
40 0.15
41 0.37
42 0.15
43 0.15
44 0.15
45 0.15
46 0.15
47 0.15
48 0.15
49 0.15
5 -0.71
56 0.15
6 -0.23
7 -0.42
8 -0.84

> <PUBCHEM_EFFECTIVE_ROTOR_COUNT>
7

> <PUBCHEM_PHARMACOPHORE_FEATURES>
9
1 1 acceptor
1 3 donor
1 4 donor
1 8 cation
5 2 6 7 14 18 rings
5 3 5 9 10 13 rings
6 19 27 28 29 30 33 rings
6 20 22 23 24 25 26 rings
6 9 10 11 12 15 16 rings

> <PUBCHEM_HEAVY_ATOM_COUNT>
33

> <PUBCHEM_ATOM_DEF_STEREO_COUNT>
0

> <PUBCHEM_ATOM_UDEF_STEREO_COUNT>
0

> <PUBCHEM_BOND_DEF_STEREO_COUNT>
0

> <PUBCHEM_BOND_UDEF_STEREO_COUNT>
0

> <PUBCHEM_ISOTOPIC_ATOM_COUNT>
0

> <PUBCHEM_COMPONENT_COUNT>
1

> <PUBCHEM_CACTVS_TAUTO_COUNT>
24

> <PUBCHEM_CONFORMER_ID>
02F85A4C00000001

> <PUBCHEM_MMFF94_ENERGY>
94.5259

> <PUBCHEM_FEATURE_SELFOVERLAP>
45.764

> <PUBCHEM_SHAPE_FINGERPRINT>
100830 2 18270122310022989457
10675989 125 18339079277185877696
10917259 69 18410015464676220060
10951579 204 18048331221877392172
11408170 253 17686070796077890140
11479125 193 18410580569674303905
11761917 142 18124868221654418696
11828042 163 18341342085665751388
11828042 53 18194130831687197556
11973864 155 18270415926692911281
12107183 9 18189032297399530210
14251764 75 18410295787409094513
14429114 114 18411414046469059689
14664723 55 18188216493656542956
14747282 140 18264497359143940509
14790565 3 18410572864164993383
14849402 71 18121500146264322103
15064981 113 17417823850728876820
15320295 198 17469323635192134309
15320467 1 18049721020778764724
15351339 4 18341884212710445065
15400415 2 18409444808448975116
155225 5 18194119853021527956
15980000 95 17688584962674823458
16067689 134 17838065805478577124
16708801 149 18266999748249017281
16728433 281 18191035706407035436
16990350 14 18410570665653636048
16992779 147 18123762945905380409
19302320 297 18194120703108516099
20691028 202 18412542085596708993
22122407 14 18337957775146594571
23569914 152 17771932467039440532
3525247 154 17695626642791658384
3918712 181 18336816563850237717
4173938 77 17766012605392068689
437795 171 18261100834033472764
44575985 301 18271802437416495216
4487111 67 18193552496189139384
5047190 92 18410858755091082681
5104073 3 17970349205506530339
5223283 242 17411923681602250863
53794403 172 18267588996324095415
550186 72 17906732862012187574
5951187 136 18128544764634503718
6036956 94 18047761678120476940
6176135 31 18337945684534211392
6201320 215 17979347888014956136

> <PUBCHEM_SHAPE_MULTIPOLES>
638.39
18.37
9.31
0.95
5.23
0.07
-0.05
29.65
-0.57
0.44
1.8
-1.1
0.61
-2.82

> <PUBCHEM_SHAPE_SELFOVERLAP>
1412.641

> <PUBCHEM_SHAPE_VOLUME>
344

> <PUBCHEM_COORDINATE_TYPE>
2
5
10

$$$$
49830458
  -OEChem-05102415023D

 48 52  0     0  0  0  0  0  0999 V2000
   -2.2798    1.5842   -1.0444 F   0  0  0  0  0  0  0  0  0  0  0  0
   -6.9240    3.5007    1.1178 F   0  0  0  0  0  0  0  0  0  0  0  0
   -5.2175   -1.0023   -0.3938 O   0  0  0  0  0  0  0  0  0  0  0  0
    4.1137   -0.4557    0.9971 N   0  0  0  0  0  0  0  0  0  0  0  0
   -2.3686   -4.1430   -0.4417 N   0  0  0  0  0  0  0  0  0  0  0  0
   -3.2161   -3.1007   -0.4355 N   0  0  0  0  0  0  0  0  0  0  0  0
   -2.8875   -0.7562   -0.1618 N   0  0  0  0  0  0  0  0  0  0  0  0
    3.8002   -2.2807   -0.0978 N   0  0  0  0  0  0  0  0  0  0  0  0
    4.7318   -1.4184    0.2939 N   0  0  0  0  0  0  0  0  0  0  0  0
   -1.0557   -2.4173   -0.1141 C   0  0  0  0  0  0  0  0  0  0  0  0
   -1.0566   -3.8007   -0.2534 C   0  0  0  0  0  0  0  0  0  0  0  0
    1.3387   -2.5035    0.1573 C   0  0  0  0  0  0  0  0  0  0  0  0
    0.1613   -1.7477    0.0955 C   0  0  0  0  0  0  0  0  0  0  0  0
   -2.4138   -2.0525   -0.2364 C   0  0  0  0  0  0  0  0  0  0  0  0
    2.5947   -1.8392    0.3726 C   0  0  0  0  0  0  0  0  0  0  0  0
    0.1055   -4.5730   -0.1953 C   0  0  0  0  0  0  0  0  0  0  0  0
    1.3091   -3.8920    0.0142 C   0  0  0  0  0  0  0  0  0  0  0  0
    4.8626    0.6372    1.5628 C   0  0  0  0  0  0  0  0  0  0  0  0
    2.7727   -0.6739    1.0752 C   0  0  0  0  0  0  0  0  0  0  0  0
    5.2353    1.6931    0.5518 C   0  0  0  0  0  0  0  0  0  0  0  0
   -4.2203   -0.3050   -0.2411 C   0  0  0  0  0  0  0  0  0  0  0  0
    6.2990    1.4764   -0.3240 C   0  0  0  0  0  0  0  0  0  0  0  0
    4.5154    2.8863    0.4927 C   0  0  0  0  0  0  0  0  0  0  0  0
   -4.4164    1.1614   -0.0973 C   0  0  0  0  0  0  0  0  0  0  0  0
    6.6428    2.4528   -1.2590 C   0  0  0  0  0  0  0  0  0  0  0  0
    4.8589    3.8627   -0.4423 C   0  0  0  0  0  0  0  0  0  0  0  0
    5.9229    3.6460   -1.3180 C   0  0  0  0  0  0  0  0  0  0  0  0
   -3.4209    2.0455   -0.5132 C   0  0  0  0  0  0  0  0  0  0  0  0
   -5.5997    1.6531    0.4539 C   0  0  0  0  0  0  0  0  0  0  0  0
   -5.7875    3.0286    0.5890 C   0  0  0  0  0  0  0  0  0  0  0  0
   -3.6085    3.4211   -0.3780 C   0  0  0  0  0  0  0  0  0  0  0  0
   -4.7917    3.9126    0.1732 C   0  0  0  0  0  0  0  0  0  0  0  0
    0.1661   -0.6660    0.1937 H   0  0  0  0  0  0  0  0  0  0  0  0
    0.0802   -5.6513   -0.3059 H   0  0  0  0  0  0  0  0  0  0  0  0
    2.2255   -4.4770    0.0667 H   0  0  0  0  0  0  0  0  0  0  0  0
    5.7650    0.2214    2.0279 H   0  0  0  0  0  0  0  0  0  0  0  0
    4.2677    1.0697    2.3764 H   0  0  0  0  0  0  0  0  0  0  0  0
    2.1037   -0.0095    1.6049 H   0  0  0  0  0  0  0  0  0  0  0  0
   -2.7520   -5.0697   -0.5800 H   0  0  0  0  0  0  0  0  0  0  0  0
   -2.1629   -0.0609   -0.0030 H   0  0  0  0  0  0  0  0  0  0  0  0
    6.8723    0.5541   -0.2859 H   0  0  0  0  0  0  0  0  0  0  0  0
    3.6831    3.0671    1.1677 H   0  0  0  0  0  0  0  0  0  0  0  0
    7.4718    2.2846   -1.9402 H   0  0  0  0  0  0  0  0  0  0  0  0
    4.2980    4.7916   -0.4888 H   0  0  0  0  0  0  0  0  0  0  0  0
    6.1906    4.4063   -2.0459 H   0  0  0  0  0  0  0  0  0  0  0  0
   -6.3857    0.9813    0.7886 H   0  0  0  0  0  0  0  0  0  0  0  0
   -2.8331    4.1090   -0.7019 H   0  0  0  0  0  0  0  0  0  0  0  0
   -4.9382    4.9835    0.2786 H   0  0  0  0  0  0  0  0  0  0  0  0
  1 28  1  0  0  0  0
  2 30  1  0  0  0  0
  3 21  2  0  0  0  0
  4  9  1  0  0  0  0
  4 18  1  0  0  0  0
  4 19  1  0  0  0  0
  5  6  1  0  0  0  0
  5 11  1  0  0  0  0
  5 39  1  0  0  0  0
  6 14  2  0  0  0  0
  7 14  1  0  0  0  0
  7 21  1  0  0  0  0
  7 40  1  0  0  0  0
  8  9  2  0  0  0  0
  8 15  1  0  0  0  0
 10 11  2  0  0  0  0
 10 13  1  0  0  0  0
 10 14  1  0  0  0  0
 11 16  1  0  0  0  0
 12 13  2  0  0  0  0
 12 15  1  0  0  0  0
 12 17  1  0  0  0  0
 13 33  1  0  0  0  0
 15 19  2  0  0  0  0
 16 17  2  0  0  0  0
 16 34  1  0  0  0  0
 17 35  1  0  0  0  0
 18 20  1  0  0  0  0
 18 36  1  0  0  0  0
 18 37  1  0  0  0  0
 19 38  1  0  0  0  0
 20 22  2  0  0  0  0
 20 23  1  0  0  0  0
 21 24  1  0  0  0  0
 22 25  1  0  0  0  0
 22 41  1  0  0  0  0
 23 26  2  0  0  0  0
 23 42  1  0  0  0  0
 24 28  2  0  0  0  0
 24 29  1  0  0  0  0
 25 27  2  0  0  0  0
 25 43  1  0  0  0  0
 26 27  1  0  0  0  0
 26 44  1  0  0  0  0
 27 45  1  0  0  0  0
 28 31  1  0  0  0  0
 29 30  2  0  0  0  0
 29 46  1  0  0  0  0
 30 32  1  0  0  0  0
 31 32  2  0  0  0  0
 31 47  1  0  0  0  0
 32 48  1  0  0  0  0
M  END
> <PUBCHEM_COMPOUND_CID>
49830458

> <PUBCHEM_CONFORMER_RMSD>
1

> <PUBCHEM_CONFORMER_DIVERSEORDER>
1
141
167
46
76
162
185
124
117
146
107
188
149
131
171
80
132
19
82
142
137
45
180
96
87
118
192
157
122
133
151
135
172
198
88
156
18
181
83
155
190
25
166
163
194
86
153
20
110
174
123
179
52
63
178
193
57
95
148
12
32
129
200
89
109
182
196
90
27
59
186
170
138
169
70
165
35
104
187
116
105
140
183
28
173
98
161
30
136
158
106
127
139
168
69
66
99
160
150
15
145
121
101
48
100
164
147
159
58
152
130
53
103
154
61
102
120
195
189
199
60
14
176
144
134
97
77
126
24
16
115
26
111
37
184
197
34
41
31
49
73
94
9
75
65
68
128
84
23
67
191
3
64
93
39
29
5
47
44
114
175
143
11
113
125
74
71
85
43
51
17
4
79
108
177
21
72
13
50
7
78
112
33
54
6
81
42
8
119
10
40
62
2
56
91
92
55
22
38
36

> <PUBCHEM_MMFF94_PARTIAL_CHARGES>
45
1 -0.19
11 -0.15
12 0.05
13 -0.15
14 0.35
15 0.17
16 -0.15
17 -0.15
18 0.4
19 -0.3
2 -0.19
20 -0.14
21 0.54
22 -0.15
23 -0.15
24 0.09
25 -0.15
26 -0.15
27 -0.15
28 0.19
29 -0.15
3 -0.57
30 0.19
31 -0.15
32 -0.15
33 0.15
34 0.15
35 0.15
38 0.15
39 0.27
4 0.31
40 0.37
41 0.15
42 0.15
43 0.15
44 0.15
45 0.15
46 0.15
47 0.15
48 0.15
5 0.3
6 -0.71
7 -0.49
8 -0.23
9 -0.42

> <PUBCHEM_EFFECTIVE_ROTOR_COUNT>
6

> <PUBCHEM_PHARMACOPHORE_FEATURES>
8
1 3 acceptor
1 5 donor
1 7 donor
5 4 8 9 15 19 rings
5 5 6 10 11 14 rings
6 10 11 12 13 16 17 rings
6 20 22 23 25 26 27 rings
6 24 28 29 30 31 32 rings

> <PUBCHEM_HEAVY_ATOM_COUNT>
32

> <PUBCHEM_ATOM_DEF_STEREO_COUNT>
0

> <PUBCHEM_ATOM_UDEF_STEREO_COUNT>
0

> <PUBCHEM_BOND_DEF_STEREO_COUNT>
0

> <PUBCHEM_BOND_UDEF_STEREO_COUNT>
0

> <PUBCHEM_ISOTOPIC_ATOM_COUNT>
0

> <PUBCHEM_COMPONENT_COUNT>
1

> <PUBCHEM_CACTVS_TAUTO_COUNT>
24

> <PUBCHEM_CONFORMER_ID>
02F85A3A00000001

> <PUBCHEM_MMFF94_ENERGY>
71.9013

> <PUBCHEM_FEATURE_SELFOVERLAP>
40.69

> <PUBCHEM_SHAPE_FINGERPRINT>
100830 2 18188779482243973300
10670039 82 18192991750318468244
10917259 128 18050555538359263624
10917259 69 18410015464702678196
11273773 38 18411136901046464320
11410812 94 18048053032914919884
11761917 142 18124586746751632544
11828042 163 18341340977569216892
12107183 9 18263344946741466762
12655364 74 17250085839529530940
13165053 182 18189597395184928789
13885169 86 18339927013414761489
13944108 23 18053667971359141040
14251764 75 18410577266522640585
14347329 18 18339355383543029170
14790565 3 18410854352058247978
14849402 71 18122060897236815978
14932702 115 18059571429730370080
15274700 147 17251763732917978916
15320467 1 18122621918676016272
15357212 105 18336000726137641916
15400415 2 18339919316786219009
15968369 153 17768515445801416866
15980000 95 17835521901483179631
16990350 14 18410851041213924314
18393751 57 18334016090929053963
19053607 189 18339068311755063560
19302320 297 18264769848710684986
19611394 137 17248931378053539707
20691028 202 18341047432806288265
21133410 127 18115027372962340556
22033318 11 18041826360647173168
23516275 100 17045407428976402753
23569914 152 8790046134660015737
245318 6 18114755900979792348
3146121 3 18412825786310575057
3146122 72 17537979396463306557
3552219 110 17773885362936888539
437795 96 17826501176722302997
50080093 196 17750506463684142792
5047190 36 18186810196483317900
5047190 48 18408600349074487956
5219985 13 18341890779456964207
53794403 172 18267305339440617022
550186 7 18129102397487055702
550186 72 17906730658741450399
57527585 21 18126827512108259582
5776283 40 18265634104022164118
5951187 136 18200323091466984806
59584819 99 16613366937046815977
6034566 193 18412554214599859273
6036956 94 18336256921295590357
6058803 2 18264746888091158682
6176135 31 18338508634550877848
6608658 132 17910663594901920030
6673363 416 17327752098763179164
7808743 9 18410848901924630362
7970288 3 9692168606313636611
9849439 229 18409170987103628623
9982175 49 17387702845297552244

> <PUBCHEM_SHAPE_MULTIPOLES>
608.24
17.59
7.45
0.99
6.05
1.51
-0.08
-25.3
-0.09
-3.07
0.96
0.97
-0.53
-2.92

> <PUBCHEM_SHAPE_SELFOVERLAP>
1363.104

> <PUBCHEM_SHAPE_VOLUME>
321.8

> <PUBCHEM_COORDINATE_TYPE>
2
5
10

$$$$
49830473
  -OEChem-05102415033D

 52 56  0     0  0  0  0  0  0999 V2000
    6.6084   -1.1076   -0.6392 O   0  0  0  0  0  0  0  0  0  0  0  0
    5.1992    0.7666    0.5892 O   0  0  0  0  0  0  0  0  0  0  0  0
   -4.1094    0.3159   -1.0035 N   0  0  0  0  0  0  0  0  0  0  0  0
    2.3875    3.9404    0.5274 N   0  0  0  0  0  0  0  0  0  0  0  0
    2.8857    0.5540    0.2079 N   0  0  0  0  0  0  0  0  0  0  0  0
    3.2278    2.8923    0.5156 N   0  0  0  0  0  0  0  0  0  0  0  0
   -3.7902    2.1245    0.1164 N   0  0  0  0  0  0  0  0  0  0  0  0
   -4.7252    1.2735   -0.2915 N   0  0  0  0  0  0  0  0  0  0  0  0
    1.0655    2.2281    0.1678 C   0  0  0  0  0  0  0  0  0  0  0  0
    1.0747    3.6095    0.3249 C   0  0  0  0  0  0  0  0  0  0  0  0
   -1.3260    2.3343   -0.1219 C   0  0  0  0  0  0  0  0  0  0  0  0
   -0.1542    1.5696   -0.0604 C   0  0  0  0  0  0  0  0  0  0  0  0
    2.4201    1.8524    0.2962 C   0  0  0  0  0  0  0  0  0  0  0  0
   -2.5850    1.6812   -0.3528 C   0  0  0  0  0  0  0  0  0  0  0  0
   -0.0816    4.3906    0.2670 C   0  0  0  0  0  0  0  0  0  0  0  0
   -1.2881    3.7206    0.0393 C   0  0  0  0  0  0  0  0  0  0  0  0
   -4.8623   -0.7648   -1.5874 C   0  0  0  0  0  0  0  0  0  0  0  0
   -2.7666    0.5263   -1.0714 C   0  0  0  0  0  0  0  0  0  0  0  0
   -5.6628   -1.5495   -0.5779 C   0  0  0  0  0  0  0  0  0  0  0  0
    4.2070    0.0857    0.3531 C   0  0  0  0  0  0  0  0  0  0  0  0
    4.3895   -1.3843    0.2295 C   0  0  0  0  0  0  0  0  0  0  0  0
   -5.0299   -2.4892    0.2357 C   0  0  0  0  0  0  0  0  0  0  0  0
   -7.0358   -1.3353   -0.4582 C   0  0  0  0  0  0  0  0  0  0  0  0
    5.5810   -1.9191   -0.2603 C   0  0  0  0  0  0  0  0  0  0  0  0
    3.3490   -2.2319    0.6097 C   0  0  0  0  0  0  0  0  0  0  0  0
   -5.7703   -3.2150    1.1691 C   0  0  0  0  0  0  0  0  0  0  0  0
   -7.7761   -2.0609    0.4749 C   0  0  0  0  0  0  0  0  0  0  0  0
   -7.1433   -3.0008    1.2886 C   0  0  0  0  0  0  0  0  0  0  0  0
    5.7320   -3.3014   -0.3700 C   0  0  0  0  0  0  0  0  0  0  0  0
    3.4999   -3.6142    0.5000 C   0  0  0  0  0  0  0  0  0  0  0  0
    4.6914   -4.1491    0.0101 C   0  0  0  0  0  0  0  0  0  0  0  0
    7.7881   -1.7423   -1.1279 C   0  0  0  0  0  0  0  0  0  0  0  0
   -0.1658    0.4894   -0.1723 H   0  0  0  0  0  0  0  0  0  0  0  0
   -0.0498    5.4672    0.3915 H   0  0  0  0  0  0  0  0  0  0  0  0
   -2.2001    4.3125   -0.0126 H   0  0  0  0  0  0  0  0  0  0  0  0
   -4.1673   -1.4326   -2.1105 H   0  0  0  0  0  0  0  0  0  0  0  0
   -5.5135   -0.3254   -2.3527 H   0  0  0  0  0  0  0  0  0  0  0  0
    2.7761    4.8626    0.6803 H   0  0  0  0  0  0  0  0  0  0  0  0
   -2.0985   -0.1349   -1.6063 H   0  0  0  0  0  0  0  0  0  0  0  0
    2.1595   -0.1217   -0.0119 H   0  0  0  0  0  0  0  0  0  0  0  0
   -3.9607   -2.6646    0.1515 H   0  0  0  0  0  0  0  0  0  0  0  0
   -7.5411   -0.6051   -1.0847 H   0  0  0  0  0  0  0  0  0  0  0  0
    2.4184   -1.8596    1.0279 H   0  0  0  0  0  0  0  0  0  0  0  0
   -5.2776   -3.9467    1.8027 H   0  0  0  0  0  0  0  0  0  0  0  0
   -8.8452   -1.8939    0.5685 H   0  0  0  0  0  0  0  0  0  0  0  0
   -7.7199   -3.5657    2.0154 H   0  0  0  0  0  0  0  0  0  0  0  0
    6.6267   -3.7894   -0.7408 H   0  0  0  0  0  0  0  0  0  0  0  0
    2.6930   -4.2749    0.8033 H   0  0  0  0  0  0  0  0  0  0  0  0
    4.8083   -5.2257   -0.0731 H   0  0  0  0  0  0  0  0  0  0  0  0
    8.2639   -2.3593   -0.3580 H   0  0  0  0  0  0  0  0  0  0  0  0
    7.5947   -2.2999   -2.0507 H   0  0  0  0  0  0  0  0  0  0  0  0
    8.4989   -0.9486   -1.3810 H   0  0  0  0  0  0  0  0  0  0  0  0
  1 24  1  0  0  0  0
  1 32  1  0  0  0  0
  2 20  2  0  0  0  0
  3  8  1  0  0  0  0
  3 17  1  0  0  0  0
  3 18  1  0  0  0  0
  4  6  1  0  0  0  0
  4 10  1  0  0  0  0
  4 38  1  0  0  0  0
  5 13  1  0  0  0  0
  5 20  1  0  0  0  0
  5 40  1  0  0  0  0
  6 13  2  0  0  0  0
  7  8  2  0  0  0  0
  7 14  1  0  0  0  0
  9 10  2  0  0  0  0
  9 12  1  0  0  0  0
  9 13  1  0  0  0  0
 10 15  1  0  0  0  0
 11 12  2  0  0  0  0
 11 14  1  0  0  0  0
 11 16  1  0  0  0  0
 12 33  1  0  0  0  0
 14 18  2  0  0  0  0
 15 16  2  0  0  0  0
 15 34  1  0  0  0  0
 16 35  1  0  0  0  0
 17 19  1  0  0  0  0
 17 36  1  0  0  0  0
 17 37  1  0  0  0  0
 18 39  1  0  0  0  0
 19 22  2  0  0  0  0
 19 23  1  0  0  0  0
 20 21  1  0  0  0  0
 21 24  1  0  0  0  0
 21 25  2  0  0  0  0
 22 26  1  0  0  0  0
 22 41  1  0  0  0  0
 23 27  2  0  0  0  0
 23 42  1  0  0  0  0
 24 29  2  0  0  0  0
 25 30  1  0  0  0  0
 25 43  1  0  0  0  0
 26 28  2  0  0  0  0
 26 44  1  0  0  0  0
 27 28  1  0  0  0  0
 27 45  1  0  0  0  0
 28 46  1  0  0  0  0
 29 31  1  0  0  0  0
 29 47  1  0  0  0  0
 30 31  2  0  0  0  0
 30 48  1  0  0  0  0
 31 49  1  0  0  0  0
 32 50  1  0  0  0  0
 32 51  1  0  0  0  0
 32 52  1  0  0  0  0
M  END
> <PUBCHEM_COMPOUND_CID>
49830473

> <PUBCHEM_CONFORMER_RMSD>
1.2

> <PUBCHEM_CONFORMER_DIVERSEORDER>
5
82
27
105
85
55
67
104
30
86
9
90
53
100
23
42
73
35
65
49
29
16
99
71
19
46
88
70
80
64
56
66
41
18
79
83
57
47
48
96
81
106
10
68
69
45
58
75
93
59
8
72
102
20
28
44
84
14
63
97
39
101
17
50
33
78
36
54
62
89
77
21
60
91
94
37
92
95
24
61
32
76
12
98
25
6
22
38
40
87
43
7
103
31
13
51
26
2
15
34
3
52
4
74
11
1

> <PUBCHEM_MMFF94_PARTIAL_CHARGES>
46
1 -0.36
10 -0.15
11 0.05
12 -0.15
13 0.35
14 0.17
15 -0.15
16 -0.15
17 0.4
18 -0.3
19 -0.14
2 -0.57
20 0.54
21 0.09
22 -0.15
23 -0.15
24 0.08
25 -0.15
26 -0.15
27 -0.15
28 -0.15
29 -0.15
3 0.31
30 -0.15
31 -0.15
32 0.28
33 0.15
34 0.15
35 0.15
38 0.27
39 0.15
4 0.3
40 0.37
41 0.15
42 0.15
43 0.15
44 0.15
45 0.15
46 0.15
47 0.15
48 0.15
49 0.15
5 -0.49
6 -0.71
7 -0.23
8 -0.42

> <PUBCHEM_EFFECTIVE_ROTOR_COUNT>
7

> <PUBCHEM_PHARMACOPHORE_FEATURES>
9
1 1 acceptor
1 2 acceptor
1 4 donor
1 5 donor
5 3 7 8 14 18 rings
5 4 6 9 10 13 rings
6 19 22 23 26 27 28 rings
6 21 24 25 29 30 31 rings
6 9 10 11 12 15 16 rings

> <PUBCHEM_HEAVY_ATOM_COUNT>
32

> <PUBCHEM_ATOM_DEF_STEREO_COUNT>
0

> <PUBCHEM_ATOM_UDEF_STEREO_COUNT>
0

> <PUBCHEM_BOND_DEF_STEREO_COUNT>
0

> <PUBCHEM_BOND_UDEF_STEREO_COUNT>
0

> <PUBCHEM_ISOTOPIC_ATOM_COUNT>
0

> <PUBCHEM_COMPONENT_COUNT>
1

> <PUBCHEM_CACTVS_TAUTO_COUNT>
24

> <PUBCHEM_CONFORMER_ID>
02F85A4900000005

> <PUBCHEM_MMFF94_ENERGY>
88.2395

> <PUBCHEM_FEATURE_SELFOVERLAP>
45.773

> <PUBCHEM_SHAPE_FINGERPRINT>
10075450 59 17915757383677571239
10305334 12 18127134061857754849
10319688 140 18265053711594974380
10622 236 17486177262738104375
11197282 1 18410009931676752139
11315621 136 18334576850005412156
11409948 8 18270950333616814912
117089 54 18411143528106966891
12107183 9 18200038335647495329
12841400 136 18337665334912953999
1361 87 17749958872781614539
13989917 61 18265897041456346827
14429380 30 18339075995672809222
15019793 15 18050848011977013935
15320467 1 18411414029300253270
15351339 4 17968649432842754635
15510800 12 18334853948093911554
15728490 83 18411422783049432755
17492 89 18411976975290789193
17909252 39 18410290336995265832
19301676 85 18051399675066877775
19611394 137 18409174319904110103
20775530 9 18200579346036776580
21033648 29 11671785987322683113
21716022 299 18115601463839433573
23424784 1240 18409445925118807931
23569914 152 17907821109074013487
24893989 43 17412750879392016415
25269216 80 15647052690757975083
2748736 6 9007052444295760111
2835820 90 17605567750194759579
2838139 119 9006758896445587620
437795 96 18045223996889087763
439807 62 18334859407271956391
4461854 278 17775286097231303622
44880168 125 16844717613738886318
46194498 28 17749660904634719132
4756088 132 18337941299658146627
50009960 94 18044346419211555170
5104073 3 18131634521622140937
5309563 4 18412262817837127154
6700243 42 17241308249384073269
7970288 3 18411413994960710935
86090 222 17677045858433370499
9831232 110 18261391217430607605

> <PUBCHEM_SHAPE_MULTIPOLES>
616.92
21.2
6.57
1
10.47
2.22
0.13
-29.16
1.23
-2.74
-1.52
0.82
-0.42
2.53

> <PUBCHEM_SHAPE_SELFOVERLAP>
1373.799

> <PUBCHEM_SHAPE_VOLUME>
329.1

> <PUBCHEM_COORDINATE_TYPE>
2
5
10

$$$$
25164676
  -OEChem-05102415033D

 48 52  0     0  0  0  0  0  0999 V2000
    5.5829   -0.2718    0.3382 O   0  0  0  0  0  0  0  0  0  0  0  0
   -3.7686   -0.6781   -0.9480 N   0  0  0  0  0  0  0  0  0  0  0  0
    3.0640   -3.6807    0.4599 N   0  0  0  0  0  0  0  0  0  0  0  0
    3.8026   -2.5590    0.4296 N   0  0  0  0  0  0  0  0  0  0  0  0
    3.2382   -0.2635    0.1273 N   0  0  0  0  0  0  0  0  0  0  0  0
   -3.2635   -2.4472    0.1668 N   0  0  0  0  0  0  0  0  0  0  0  0
   -4.2804   -1.6871   -0.2243 N   0  0  0  0  0  0  0  0  0  0  0  0
    1.5814   -2.1000    0.1251 C   0  0  0  0  0  0  0  0  0  0  0  0
    1.7224   -3.4741    0.2828 C   0  0  0  0  0  0  0  0  0  0  0  0
   -0.7951   -2.4290   -0.1165 C   0  0  0  0  0  0  0  0  0  0  0  0
    0.3013   -1.5585   -0.0789 C   0  0  0  0  0  0  0  0  0  0  0  0
    2.8973   -1.5995    0.2262 C   0  0  0  0  0  0  0  0  0  0  0  0
   -2.1130   -1.8954   -0.3246 C   0  0  0  0  0  0  0  0  0  0  0  0
   -0.6251   -3.8054    0.0448 C   0  0  0  0  0  0  0  0  0  0  0  0
    0.6429   -4.3595    0.2489 C   0  0  0  0  0  0  0  0  0  0  0  0
   -4.6287    0.3267   -1.5190 C   0  0  0  0  0  0  0  0  0  0  0  0
   -2.4135   -0.7637   -1.0402 C   0  0  0  0  0  0  0  0  0  0  0  0
   -5.0927    1.3556   -0.5179 C   0  0  0  0  0  0  0  0  0  0  0  0
   -6.1198    1.0467    0.3741 C   0  0  0  0  0  0  0  0  0  0  0  0
   -4.4945    2.6152   -0.4834 C   0  0  0  0  0  0  0  0  0  0  0  0
    4.5196    0.3197    0.1855 C   0  0  0  0  0  0  0  0  0  0  0  0
    4.5665    1.7961    0.0184 C   0  0  0  0  0  0  0  0  0  0  0  0
   -6.5487    1.9974    1.3003 C   0  0  0  0  0  0  0  0  0  0  0  0
   -4.9233    3.5658    0.4429 C   0  0  0  0  0  0  0  0  0  0  0  0
   -5.9504    3.2569    1.3348 C   0  0  0  0  0  0  0  0  0  0  0  0
    5.7126    2.4036   -0.4949 C   0  0  0  0  0  0  0  0  0  0  0  0
    3.4646    2.5740    0.3740 C   0  0  0  0  0  0  0  0  0  0  0  0
    5.7569    3.7889   -0.6521 C   0  0  0  0  0  0  0  0  0  0  0  0
    3.5090    3.9593    0.2167 C   0  0  0  0  0  0  0  0  0  0  0  0
    4.6551    4.5667   -0.2965 C   0  0  0  0  0  0  0  0  0  0  0  0
    0.1871   -0.4842   -0.1912 H   0  0  0  0  0  0  0  0  0  0  0  0
   -1.4789   -4.4798    0.0112 H   0  0  0  0  0  0  0  0  0  0  0  0
    0.7772   -5.4282    0.3735 H   0  0  0  0  0  0  0  0  0  0  0  0
   -5.4905   -0.1833   -1.9670 H   0  0  0  0  0  0  0  0  0  0  0  0
   -4.0888    0.8040   -2.3459 H   0  0  0  0  0  0  0  0  0  0  0  0
   -1.8197   -0.0440   -1.5871 H   0  0  0  0  0  0  0  0  0  0  0  0
    3.5397   -4.5623    0.6060 H   0  0  0  0  0  0  0  0  0  0  0  0
    2.4430    0.3408   -0.0567 H   0  0  0  0  0  0  0  0  0  0  0  0
   -6.5988    0.0716    0.3553 H   0  0  0  0  0  0  0  0  0  0  0  0
   -3.6919    2.8680   -1.1711 H   0  0  0  0  0  0  0  0  0  0  0  0
   -7.3493    1.7574    1.9939 H   0  0  0  0  0  0  0  0  0  0  0  0
   -4.4571    4.5463    0.4703 H   0  0  0  0  0  0  0  0  0  0  0  0
   -6.2843    3.9972    2.0558 H   0  0  0  0  0  0  0  0  0  0  0  0
    6.5801    1.8158   -0.7832 H   0  0  0  0  0  0  0  0  0  0  0  0
    2.5660    2.1482    0.8098 H   0  0  0  0  0  0  0  0  0  0  0  0
    6.6488    4.2620   -1.0525 H   0  0  0  0  0  0  0  0  0  0  0  0
    2.6544    4.5664    0.5010 H   0  0  0  0  0  0  0  0  0  0  0  0
    4.6901    5.6454   -0.4175 H   0  0  0  0  0  0  0  0  0  0  0  0
  1 21  2  0  0  0  0
  2  7  1  0  0  0  0
  2 16  1  0  0  0  0
  2 17  1  0  0  0  0
  3  4  1  0  0  0  0
  3  9  1  0  0  0  0
  3 37  1  0  0  0  0
  4 12  2  0  0  0  0
  5 12  1  0  0  0  0
  5 21  1  0  0  0  0
  5 38  1  0  0  0  0
  6  7  2  0  0  0  0
  6 13  1  0  0  0  0
  8  9  2  0  0  0  0
  8 11  1  0  0  0  0
  8 12  1  0  0  0  0
  9 15  1  0  0  0  0
 10 11  2  0  0  0  0
 10 13  1  0  0  0  0
 10 14  1  0  0  0  0
 11 31  1  0  0  0  0
 13 17  2  0  0  0  0
 14 15  2  0  0  0  0
 14 32  1  0  0  0  0
 15 33  1  0  0  0  0
 16 18  1  0  0  0  0
 16 34  1  0  0  0  0
 16 35  1  0  0  0  0
 17 36  1  0  0  0  0
 18 19  2  0  0  0  0
 18 20  1  0  0  0  0
 19 23  1  0  0  0  0
 19 39  1  0  0  0  0
 20 24  2  0  0  0  0
 20 40  1  0  0  0  0
 21 22  1  0  0  0  0
 22 26  2  0  0  0  0
 22 27  1  0  0  0  0
 23 25  2  0  0  0  0
 23 41  1  0  0  0  0
 24 25  1  0  0  0  0
 24 42  1  0  0  0  0
 25 43  1  0  0  0  0
 26 28  1  0  0  0  0
 26 44  1  0  0  0  0
 27 29  2  0  0  0  0
 27 45  1  0  0  0  0
 28 30  2  0  0  0  0
 28 46  1  0  0  0  0
 29 30  1  0  0  0  0
 29 47  1  0  0  0  0
 30 48  1  0  0  0  0
M  END
> <PUBCHEM_COMPOUND_CID>
25164676

> <PUBCHEM_CONFORMER_RMSD>
0.8

> <PUBCHEM_CONFORMER_DIVERSEORDER>
1
78
90
82
63
70
37
84
33
30
111
79
68
86
60
123
42
56
92
75
115
66
71
72
83
77
85
97
21
65
93
43
127
55
35
25
104
94
98
113
7
81
130
44
67
47
99
59
96
54
61
129
28
109
89
24
31
135
57
103
74
29
64
50
101
100
128
107
116
45
12
105
73
132
69
26
112
27
32
38
108
13
117
134
122
41
51
80
3
62
18
121
14
91
58
119
125
120
2
22
87
39
19
102
114
131
5
48
106
46
53
36
76
16
8
110
49
95
40
52
4
133
34
124
118
88
10
11
23
126
15
20
17
6
9

> <PUBCHEM_MMFF94_PARTIAL_CHARGES>
45
1 -0.57
10 0.05
11 -0.15
12 0.35
13 0.17
14 -0.15
15 -0.15
16 0.4
17 -0.3
18 -0.14
19 -0.15
2 0.31
20 -0.15
21 0.54
22 0.09
23 -0.15
24 -0.15
25 -0.15
26 -0.15
27 -0.15
28 -0.15
29 -0.15
3 0.3
30 -0.15
31 0.15
32 0.15
33 0.15
36 0.15
37 0.27
38 0.37
39 0.15
4 -0.71
40 0.15
41 0.15
42 0.15
43 0.15
44 0.15
45 0.15
46 0.15
47 0.15
48 0.15
5 -0.49
6 -0.23
7 -0.42
9 -0.15

> <PUBCHEM_EFFECTIVE_ROTOR_COUNT>
6

> <PUBCHEM_PHARMACOPHORE_FEATURES>
8
1 1 acceptor
1 3 donor
1 5 donor
5 2 6 7 13 17 rings
5 3 4 8 9 12 rings
6 18 19 20 23 24 25 rings
6 22 26 27 28 29 30 rings
6 8 9 10 11 14 15 rings

> <PUBCHEM_HEAVY_ATOM_COUNT>
30

> <PUBCHEM_ATOM_DEF_STEREO_COUNT>
0

> <PUBCHEM_ATOM_UDEF_STEREO_COUNT>
0

> <PUBCHEM_BOND_DEF_STEREO_COUNT>
0

> <PUBCHEM_BOND_UDEF_STEREO_COUNT>
0

> <PUBCHEM_ISOTOPIC_ATOM_COUNT>
0

> <PUBCHEM_COMPONENT_COUNT>
1

> <PUBCHEM_CACTVS_TAUTO_COUNT>
8

> <PUBCHEM_CONFORMER_ID>
017FFB8400000001

> <PUBCHEM_MMFF94_ENERGY>
71.6844

> <PUBCHEM_FEATURE_SELFOVERLAP>
40.69

> <PUBCHEM_SHAPE_FINGERPRINT>
100830 2 18411989069692185777
10439779 11 18122332747782725040
10917259 69 18338239375680046684
11059048 146 18339639056968670344
11070050 100 16950565419863168002
11101153 10 18413100668253718415
11479125 193 18410300232795588729
11828042 163 18341061740255110980
11973864 155 17975439093169695604
1200032 147 18114186363174071776
12107183 9 18117255130471294026
12925494 130 18409443709269312201
12975358 362 16983520967058676617
13398642 44 18187940498815677413
13590594 115 17401766320012103931
13885169 86 18340772555236733417
13944108 23 18339646629602428060
14251764 75 18411421713138455941
14347329 18 18339917229178659176
14429114 114 18339919445292235969
14664723 55 18043256940891178924
14790565 3 18410855485903246853
14849402 71 18265052440400510690
15081414 286 17979632338639033799
15082195 135 18268124561967035879
15142526 21 18260830367558633723
15274700 147 15804702062811765484
15320295 198 17756990009139235557
15320467 1 18410290285514498508
15351339 4 18341604975190201457
16067689 134 18197230156468389588
16112460 7 18269840813275686001
16708801 149 18266720528161973888
16728433 281 17902242431820644860
16760501 71 18338238159496556057
16992779 147 18267034859986321113
1768 23 17559690438694515609
19302320 297 18266179426722732443
20691028 202 18271523075468605161
22122407 14 18410016537109379579
245318 6 18187376461976905165
24771293 8 18127384806365542954
4173938 77 18268161859078009557
437795 171 18262228933132505757
437795 96 17753604647102340077
5104073 3 18114179696958132467
5223283 242 17627539067250077742
53794403 172 18339084795854791110
550186 72 18050002500451304407
57724786 102 18340202982127392959
5951187 136 18200605695940947070
6058803 2 18269251539937998527
7970288 3 8323076514521845084

> <PUBCHEM_SHAPE_MULTIPOLES>
581.63
17.13
7.35
0.96
8.55
0.6
0.06
22.9
-1.3
-5.59
-0.88
1.21
0.38
-2.69

> <PUBCHEM_SHAPE_SELFOVERLAP>
1299.427

> <PUBCHEM_SHAPE_VOLUME>
309.3

> <PUBCHEM_COORDINATE_TYPE>
2
5
10

$$$$
49830465
  -OEChem-05102415033D

 56 60  0     0  0  0  0  0  0999 V2000
    4.7358   -1.9723    0.4572 O   0  0  0  0  0  0  0  0  0  0  0  0
    2.8118    3.6057    0.6870 O   0  0  0  0  0  0  0  0  0  0  0  0
    7.0955    2.2717   -0.9432 O   0  0  0  0  0  0  0  0  0  0  0  0
   -4.4287   -0.2141   -1.0341 N   0  0  0  0  0  0  0  0  0  0  0  0
    1.4995   -4.7123    0.4853 N   0  0  0  0  0  0  0  0  0  0  0  0
    2.4607   -1.4241    0.1998 N   0  0  0  0  0  0  0  0  0  0  0  0
    2.4763   -3.7901    0.4846 N   0  0  0  0  0  0  0  0  0  0  0  0
   -4.3682   -2.0593    0.0700 N   0  0  0  0  0  0  0  0  0  0  0  0
   -5.1748   -1.0842   -0.3343 N   0  0  0  0  0  0  0  0  0  0  0  0
    0.4275   -2.8311    0.1382 C   0  0  0  0  0  0  0  0  0  0  0  0
    0.2456   -4.2020    0.2820 C   0  0  0  0  0  0  0  0  0  0  0  0
   -1.9547   -2.6040   -0.1582 C   0  0  0  0  0  0  0  0  0  0  0  0
   -0.6890   -2.0087   -0.0865 C   0  0  0  0  0  0  0  0  0  0  0  0
    1.8204   -2.6468    0.2736 C   0  0  0  0  0  0  0  0  0  0  0  0
   -3.1106   -1.7819   -0.3891 C   0  0  0  0  0  0  0  0  0  0  0  0
   -1.0071   -4.8156    0.2142 C   0  0  0  0  0  0  0  0  0  0  0  0
   -2.1088   -3.9837   -0.0103 C   0  0  0  0  0  0  0  0  0  0  0  0
   -5.0222    0.9649   -1.6113 C   0  0  0  0  0  0  0  0  0  0  0  0
   -3.1272   -0.6066   -1.0973 C   0  0  0  0  0  0  0  0  0  0  0  0
   -5.2634    2.0652   -0.6078 C   0  0  0  0  0  0  0  0  0  0  0  0
    3.8402   -1.1510    0.2916 C   0  0  0  0  0  0  0  0  0  0  0  0
    4.2283    0.2763    0.1451 C   0  0  0  0  0  0  0  0  0  0  0  0
   -6.3552    1.9932    0.2572 C   0  0  0  0  0  0  0  0  0  0  0  0
   -4.3945    3.1546   -0.5451 C   0  0  0  0  0  0  0  0  0  0  0  0
    5.4948    0.6084   -0.3360 C   0  0  0  0  0  0  0  0  0  0  0  0
    3.3267    1.2836    0.4888 C   0  0  0  0  0  0  0  0  0  0  0  0
    3.6916    2.6229    0.3516 C   0  0  0  0  0  0  0  0  0  0  0  0
    5.8597    1.9477   -0.4731 C   0  0  0  0  0  0  0  0  0  0  0  0
   -6.5781    3.0107    1.1849 C   0  0  0  0  0  0  0  0  0  0  0  0
   -4.6174    4.1720    0.3827 C   0  0  0  0  0  0  0  0  0  0  0  0
    4.9581    2.9548   -0.1293 C   0  0  0  0  0  0  0  0  0  0  0  0
   -5.7093    4.1001    1.2478 C   0  0  0  0  0  0  0  0  0  0  0  0
    1.5341    3.1953    1.1720 C   0  0  0  0  0  0  0  0  0  0  0  0
    7.4024    3.6604   -1.0581 C   0  0  0  0  0  0  0  0  0  0  0  0
   -0.5512   -0.9362   -0.1883 H   0  0  0  0  0  0  0  0  0  0  0  0
   -1.1244   -5.8874    0.3286 H   0  0  0  0  0  0  0  0  0  0  0  0
   -3.0934   -4.4438   -0.0706 H   0  0  0  0  0  0  0  0  0  0  0  0
    1.7567   -5.6806    0.6307 H   0  0  0  0  0  0  0  0  0  0  0  0
   -5.9665    0.6687   -2.0847 H   0  0  0  0  0  0  0  0  0  0  0  0
   -4.3675    1.3120   -2.4199 H   0  0  0  0  0  0  0  0  0  0  0  0
   -2.3715   -0.0379   -1.6220 H   0  0  0  0  0  0  0  0  0  0  0  0
    1.8287   -0.6547    0.0002 H   0  0  0  0  0  0  0  0  0  0  0  0
   -7.0435    1.1535    0.2161 H   0  0  0  0  0  0  0  0  0  0  0  0
   -3.5388    3.2220   -1.2117 H   0  0  0  0  0  0  0  0  0  0  0  0
    6.2066   -0.1655   -0.6130 H   0  0  0  0  0  0  0  0  0  0  0  0
    2.3683    1.0015    0.9053 H   0  0  0  0  0  0  0  0  0  0  0  0
   -7.4290    2.9554    1.8577 H   0  0  0  0  0  0  0  0  0  0  0  0
   -3.9406    5.0199    0.4321 H   0  0  0  0  0  0  0  0  0  0  0  0
    5.1821    4.0132   -0.2134 H   0  0  0  0  0  0  0  0  0  0  0  0
   -5.8829    4.8923    1.9701 H   0  0  0  0  0  0  0  0  0  0  0  0
    0.9762    2.6317    0.4163 H   0  0  0  0  0  0  0  0  0  0  0  0
    1.6183    2.6533    2.1202 H   0  0  0  0  0  0  0  0  0  0  0  0
    0.9602    4.1052    1.3767 H   0  0  0  0  0  0  0  0  0  0  0  0
    6.7486    4.1586   -1.7821 H   0  0  0  0  0  0  0  0  0  0  0  0
    7.3955    4.1564   -0.0816 H   0  0  0  0  0  0  0  0  0  0  0  0
    8.4235    3.7344   -1.4464 H   0  0  0  0  0  0  0  0  0  0  0  0
  1 21  2  0  0  0  0
  2 27  1  0  0  0  0
  2 33  1  0  0  0  0
  3 28  1  0  0  0  0
  3 34  1  0  0  0  0
  4  9  1  0  0  0  0
  4 18  1  0  0  0  0
  4 19  1  0  0  0  0
  5  7  1  0  0  0  0
  5 11  1  0  0  0  0
  5 38  1  0  0  0  0
  6 14  1  0  0  0  0
  6 21  1  0  0  0  0
  6 42  1  0  0  0  0
  7 14  2  0  0  0  0
  8  9  2  0  0  0  0
  8 15  1  0  0  0  0
 10 11  2  0  0  0  0
 10 13  1  0  0  0  0
 10 14  1  0  0  0  0
 11 16  1  0  0  0  0
 12 13  2  0  0  0  0
 12 15  1  0  0  0  0
 12 17  1  0  0  0  0
 13 35  1  0  0  0  0
 15 19  2  0  0  0  0
 16 17  2  0  0  0  0
 16 36  1  0  0  0  0
 17 37  1  0  0  0  0
 18 20  1  0  0  0  0
 18 39  1  0  0  0  0
 18 40  1  0  0  0  0
 19 41  1  0  0  0  0
 20 23  2  0  0  0  0
 20 24  1  0  0  0  0
 21 22  1  0  0  0  0
 22 25  2  0  0  0  0
 22 26  1  0  0  0  0
 23 29  1  0  0  0  0
 23 43  1  0  0  0  0
 24 30  2  0  0  0  0
 24 44  1  0  0  0  0
 25 28  1  0  0  0  0
 25 45  1  0  0  0  0
 26 27  2  0  0  0  0
 26 46  1  0  0  0  0
 27 31  1  0  0  0  0
 28 31  2  0  0  0  0
 29 32  2  0  0  0  0
 29 47  1  0  0  0  0
 30 32  1  0  0  0  0
 30 48  1  0  0  0  0
 31 49  1  0  0  0  0
 32 50  1  0  0  0  0
 33 51  1  0  0  0  0
 33 52  1  0  0  0  0
 33 53  1  0  0  0  0
 34 54  1  0  0  0  0
 34 55  1  0  0  0  0
 34 56  1  0  0  0  0
M  END
> <PUBCHEM_COMPOUND_CID>
49830465

> <PUBCHEM_CONFORMER_RMSD>
1

> <PUBCHEM_CONFORMER_DIVERSEORDER>
1
64
98
82
49
78
54
130
58
19
121
84
70
59
87
116
60
57
34
92
18
104
36
99
41
63
129
80
21
40
62
72
56
103
61
118
85
10
68
46
102
50
106
131
93
133
107
76
96
37
48
134
20
113
33
86
95
128
115
105
97
122
94
12
132
119
17
110
47
120
109
32
90
6
79
44
29
101
35
27
66
65
124
15
30
28
125
55
5
38
108
3
89
43
74
114
4
45
71
83
13
25
126
127
67
26
42
117
53
23
81
31
22
123
8
69
75
7
16
112
77
111
51
11
52
100
14
91
9
2
39
73
88
24

> <PUBCHEM_MMFF94_PARTIAL_CHARGES>
47
1 -0.57
11 -0.15
12 0.05
13 -0.15
14 0.35
15 0.17
16 -0.15
17 -0.15
18 0.4
19 -0.3
2 -0.36
20 -0.14
21 0.54
22 0.09
23 -0.15
24 -0.15
25 -0.15
26 -0.15
27 0.08
28 0.08
29 -0.15
3 -0.36
30 -0.15
31 -0.15
32 -0.15
33 0.28
34 0.28
35 0.15
36 0.15
37 0.15
38 0.27
4 0.31
41 0.15
42 0.37
43 0.15
44 0.15
45 0.15
46 0.15
47 0.15
48 0.15
49 0.15
5 0.3
50 0.15
6 -0.49
7 -0.71
8 -0.23
9 -0.42

> <PUBCHEM_EFFECTIVE_ROTOR_COUNT>
8

> <PUBCHEM_PHARMACOPHORE_FEATURES>
10
1 1 acceptor
1 2 acceptor
1 3 acceptor
1 5 donor
1 6 donor
5 4 8 9 15 19 rings
5 5 7 10 11 14 rings
6 10 11 12 13 16 17 rings
6 20 23 24 29 30 32 rings
6 22 25 26 27 28 31 rings

> <PUBCHEM_HEAVY_ATOM_COUNT>
34

> <PUBCHEM_ATOM_DEF_STEREO_COUNT>
0

> <PUBCHEM_ATOM_UDEF_STEREO_COUNT>
0

> <PUBCHEM_BOND_DEF_STEREO_COUNT>
0

> <PUBCHEM_BOND_UDEF_STEREO_COUNT>
0

> <PUBCHEM_ISOTOPIC_ATOM_COUNT>
0

> <PUBCHEM_COMPONENT_COUNT>
1

> <PUBCHEM_CACTVS_TAUTO_COUNT>
24

> <PUBCHEM_CONFORMER_ID>
02F85A4100000001

> <PUBCHEM_MMFF94_ENERGY>
100.8018

> <PUBCHEM_FEATURE_SELFOVERLAP>
50.84

> <PUBCHEM_SHAPE_FINGERPRINT>
100830 2 18340772529203627265
10439779 11 18338784737040251408
10675989 125 18337954468364563714
10917259 69 18410015443137729316
11017883 126 16758893919062731993
11059048 146 18411974784804487009
11408170 253 17975146649305148660
11479125 193 18338241475037509057
11828042 163 18269001895569176870
11973864 155 18341629108907116145
1200032 147 18114186332940164416
12107183 9 18188750813759187834
12925494 130 18410567371719609881
13944108 23 18195809570438578260
14251764 75 18338801113549804799
14664723 55 18187933927700103836
14790565 3 18410853227151603151
14849402 71 18120936096809952427
15082195 135 18196063618192279135
15150948 74 18409161112853262517
15320291 9 17835222820812939429
15320295 198 17469041056514239261
15320467 1 18266455593225768921
15351339 4 18341322349441609425
15400415 2 18410008823354104980
15980000 95 17688583871763660298
16067689 134 18198353857378408801
16112460 7 18341333292844524249
16728433 281 18191035693469204148
16990350 14 18337948983337665152
16992727 255 18263650731338658316
17627616 140 18340765923786486857
19302320 297 18122061996948514499
21133410 58 16390711416456588665
21133410 62 18339374010752927745
21859007 373 17911229848465556144
22122407 14 18338519642884288795
23569914 152 17700436701921113798
4058900 60 18334294275353764410
4173938 77 18052830147946476893
437795 171 18189327962167958757
5104073 3 17970066643903113275
5223283 242 17412204052930699951
53794403 172 18267026042107478767
54324442 115 18125438858881296369
550186 72 18266174127540755919
5951187 136 18056768628277502655

> <PUBCHEM_SHAPE_MULTIPOLES>
652.21
18.4
8.29
1.03
3
3.51
0.1
-27.2
2.54
-1.16
-1.72
-0.7
-0.71
-2.86

> <PUBCHEM_SHAPE_SELFOVERLAP>
1444.406

> <PUBCHEM_SHAPE_VOLUME>
351

> <PUBCHEM_COORDINATE_TYPE>
2
5
10

$$$$
49830460
  -OEChem-05102415033D

 48 52  0     0  0  0  0  0  0999 V2000
    2.5568    4.4627    0.4860 F   0  0  0  0  0  0  0  0  0  0  0  0
    5.4851   -0.6395    0.3075 O   0  0  0  0  0  0  0  0  0  0  0  0
   -3.8812   -0.6881   -0.9467 N   0  0  0  0  0  0  0  0  0  0  0  0
    2.8313   -3.9424    0.4807 N   0  0  0  0  0  0  0  0  0  0  0  0
    3.6144   -2.8519    0.4344 N   0  0  0  0  0  0  0  0  0  0  0  0
    3.1415   -0.5392    0.1068 N   0  0  0  0  0  0  0  0  0  0  0  0
   -3.4427   -2.4616    0.1888 N   0  0  0  0  0  0  0  0  0  0  0  0
   -4.4301   -1.6671   -0.2095 N   0  0  0  0  0  0  0  0  0  0  0  0
    1.4124   -2.3075    0.1306 C   0  0  0  0  0  0  0  0  0  0  0  0
    1.4985   -3.6842    0.3049 C   0  0  0  0  0  0  0  0  0  0  0  0
   -0.9763   -2.5436   -0.1000 C   0  0  0  0  0  0  0  0  0  0  0  0
    0.1544   -1.7175   -0.0763 C   0  0  0  0  0  0  0  0  0  0  0  0
    2.7477   -1.8591    0.2218 C   0  0  0  0  0  0  0  0  0  0  0  0
   -2.2729   -1.9615   -0.3119 C   0  0  0  0  0  0  0  0  0  0  0  0
    0.3842   -4.5258    0.2851 C   0  0  0  0  0  0  0  0  0  0  0  0
   -0.8611   -3.9236    0.0778 C   0  0  0  0  0  0  0  0  0  0  0  0
   -4.7027    0.3430   -1.5278 C   0  0  0  0  0  0  0  0  0  0  0  0
   -2.5308   -0.8278   -1.0409 C   0  0  0  0  0  0  0  0  0  0  0  0
   -5.1234    1.4009   -0.5381 C   0  0  0  0  0  0  0  0  0  0  0  0
    4.4457   -0.0072    0.1531 C   0  0  0  0  0  0  0  0  0  0  0  0
   -6.1594    1.1435    0.3596 C   0  0  0  0  0  0  0  0  0  0  0  0
   -4.4764    2.6365   -0.5209 C   0  0  0  0  0  0  0  0  0  0  0  0
    4.5512    1.4640   -0.0309 C   0  0  0  0  0  0  0  0  0  0  0  0
   -6.5484    2.1217    1.2749 C   0  0  0  0  0  0  0  0  0  0  0  0
   -4.8654    3.6148    0.3943 C   0  0  0  0  0  0  0  0  0  0  0  0
   -5.9013    3.3573    1.2923 C   0  0  0  0  0  0  0  0  0  0  0  0
    3.4831    2.2893    0.3206 C   0  0  0  0  0  0  0  0  0  0  0  0
    5.7183    2.0193   -0.5561 C   0  0  0  0  0  0  0  0  0  0  0  0
    3.5817    3.6699    0.1473 C   0  0  0  0  0  0  0  0  0  0  0  0
    5.8169    3.3998   -0.7297 C   0  0  0  0  0  0  0  0  0  0  0  0
    4.7488    4.2252   -0.3779 C   0  0  0  0  0  0  0  0  0  0  0  0
    0.0830   -0.6410   -0.2019 H   0  0  0  0  0  0  0  0  0  0  0  0
    0.4759   -5.5974    0.4226 H   0  0  0  0  0  0  0  0  0  0  0  0
   -1.7413   -4.5636    0.0548 H   0  0  0  0  0  0  0  0  0  0  0  0
   -5.5850   -0.1381   -1.9679 H   0  0  0  0  0  0  0  0  0  0  0  0
   -4.1467    0.7888   -2.3615 H   0  0  0  0  0  0  0  0  0  0  0  0
   -1.9107   -0.1386   -1.5978 H   0  0  0  0  0  0  0  0  0  0  0  0
    3.2716   -4.8406    0.6363 H   0  0  0  0  0  0  0  0  0  0  0  0
    2.3704    0.0945   -0.0812 H   0  0  0  0  0  0  0  0  0  0  0  0
   -6.6762    0.1876    0.3540 H   0  0  0  0  0  0  0  0  0  0  0  0
   -3.6664    2.8493   -1.2134 H   0  0  0  0  0  0  0  0  0  0  0  0
   -7.3558    1.9218    1.9733 H   0  0  0  0  0  0  0  0  0  0  0  0
   -4.3614    4.5768    0.4082 H   0  0  0  0  0  0  0  0  0  0  0  0
   -6.2042    4.1189    2.0049 H   0  0  0  0  0  0  0  0  0  0  0  0
    2.5696    1.9049    0.7638 H   0  0  0  0  0  0  0  0  0  0  0  0
    6.5600    1.3939   -0.8415 H   0  0  0  0  0  0  0  0  0  0  0  0
    6.7248    3.8323   -1.1398 H   0  0  0  0  0  0  0  0  0  0  0  0
    4.8254    5.3000   -0.5129 H   0  0  0  0  0  0  0  0  0  0  0  0
  1 29  1  0  0  0  0
  2 20  2  0  0  0  0
  3  8  1  0  0  0  0
  3 17  1  0  0  0  0
  3 18  1  0  0  0  0
  4  5  1  0  0  0  0
  4 10  1  0  0  0  0
  4 38  1  0  0  0  0
  5 13  2  0  0  0  0
  6 13  1  0  0  0  0
  6 20  1  0  0  0  0
  6 39  1  0  0  0  0
  7  8  2  0  0  0  0
  7 14  1  0  0  0  0
  9 10  2  0  0  0  0
  9 12  1  0  0  0  0
  9 13  1  0  0  0  0
 10 15  1  0  0  0  0
 11 12  2  0  0  0  0
 11 14  1  0  0  0  0
 11 16  1  0  0  0  0
 12 32  1  0  0  0  0
 14 18  2  0  0  0  0
 15 16  2  0  0  0  0
 15 33  1  0  0  0  0
 16 34  1  0  0  0  0
 17 19  1  0  0  0  0
 17 35  1  0  0  0  0
 17 36  1  0  0  0  0
 18 37  1  0  0  0  0
 19 21  2  0  0  0  0
 19 22  1  0  0  0  0
 20 23  1  0  0  0  0
 21 24  1  0  0  0  0
 21 40  1  0  0  0  0
 22 25  2  0  0  0  0
 22 41  1  0  0  0  0
 23 27  2  0  0  0  0
 23 28  1  0  0  0  0
 24 26  2  0  0  0  0
 24 42  1  0  0  0  0
 25 26  1  0  0  0  0
 25 43  1  0  0  0  0
 26 44  1  0  0  0  0
 27 29  1  0  0  0  0
 27 45  1  0  0  0  0
 28 30  2  0  0  0  0
 28 46  1  0  0  0  0
 29 31  2  0  0  0  0
 30 31  1  0  0  0  0
 30 47  1  0  0  0  0
 31 48  1  0  0  0  0
M  END
> <PUBCHEM_COMPOUND_CID>
49830460

> <PUBCHEM_CONFORMER_RMSD>
0.8

> <PUBCHEM_CONFORMER_DIVERSEORDER>
1
240
216
193
271
144
138
169
284
139
322
131
203
107
279
241
153
179
119
312
190
199
330
205
213
206
196
141
283
54
326
233
134
204
42
235
182
122
264
309
56
292
156
266
155
94
160
129
227
274
188
19
232
121
61
92
208
148
175
323
109
55
143
209
177
242
300
210
27
151
173
270
59
304
168
321
22
253
239
228
170
104
142
250
298
150
79
135
212
84
69
251
133
174
207
128
183
286
130
202
278
265
319
62
221
329
223
132
67
180
40
93
222
281
178
172
211
21
60
117
189
308
237
125
263
136
57
215
277
187
123
87
200
159
327
100
65
76
303
257
77
72
165
236
97
185
35
328
161
158
195
115
258
316
176
91
247
231
262
313
68
89
75
111
17
194
81
73
184
140
289
245
287
6
219
51
13
66
74
314
296
106
230
260
101
234
220
15
248
90
114
317
226
280
3
147
197
41
52
127
112
218
294
229
2
272
78
273
64
267
311
37
285
269
291
45
116
268
293
103
33
325
36
217
255
9
58
30
297
154
162
118
145
318
102
246
324
164
86
49
44
244
7
252
34
225
63
192
301
12
256
137
299
243
98
124
126
238
157
32
276
28
254
310
38
26
186
88
275
95
166
96
305
11
181
53
146
315
295
198
201
23
4
80
99
249
82
306
171
108
47
16
290
320
191
71
152
70
282
50
48
261
259
5
288
302
83
110
20
43
224
163
18
14
8
167
24
149
25
113
105
307
46
10
214
120
85
31
39
29

> <PUBCHEM_MMFF94_PARTIAL_CHARGES>
45
1 -0.19
10 -0.15
11 0.05
12 -0.15
13 0.35
14 0.17
15 -0.15
16 -0.15
17 0.4
18 -0.3
19 -0.14
2 -0.57
20 0.54
21 -0.15
22 -0.15
23 0.09
24 -0.15
25 -0.15
26 -0.15
27 -0.15
28 -0.15
29 0.19
3 0.31
30 -0.15
31 -0.15
32 0.15
33 0.15
34 0.15
37 0.15
38 0.27
39 0.37
4 0.3
40 0.15
41 0.15
42 0.15
43 0.15
44 0.15
45 0.15
46 0.15
47 0.15
48 0.15
5 -0.71
6 -0.49
7 -0.23
8 -0.42

> <PUBCHEM_EFFECTIVE_ROTOR_COUNT>
6

> <PUBCHEM_PHARMACOPHORE_FEATURES>
8
1 2 acceptor
1 4 donor
1 6 donor
5 3 7 8 14 18 rings
5 4 5 9 10 13 rings
6 19 21 22 24 25 26 rings
6 23 27 28 29 30 31 rings
6 9 10 11 12 15 16 rings

> <PUBCHEM_HEAVY_ATOM_COUNT>
31

> <PUBCHEM_ATOM_DEF_STEREO_COUNT>
0

> <PUBCHEM_ATOM_UDEF_STEREO_COUNT>
0

> <PUBCHEM_BOND_DEF_STEREO_COUNT>
0

> <PUBCHEM_BOND_UDEF_STEREO_COUNT>
0

> <PUBCHEM_ISOTOPIC_ATOM_COUNT>
0

> <PUBCHEM_COMPONENT_COUNT>
1

> <PUBCHEM_CACTVS_TAUTO_COUNT>
24

> <PUBCHEM_CONFORMER_ID>
02F85A3C00000001

> <PUBCHEM_MMFF94_ENERGY>
71.7478

> <PUBCHEM_FEATURE_SELFOVERLAP>
40.69

> <PUBCHEM_SHAPE_FINGERPRINT>
100830 2 18411989056838867465
10439779 11 18194390324677590176
10917259 69 18337957892107970820
11059048 146 18339639052636708353
11070050 100 16805888377055852027
11101153 10 18413100668274901871
11479125 193 18410018753529107569
11828042 163 18341061731649222236
11973864 155 18048622569850155440
1200032 147 18113905983387517896
12107183 9 18189312711598193162
12925494 130 18409443717848632321
12975358 362 16983520958474010281
13398642 44 18187940490262601141
13590594 115 17401767419555438683
13885169 86 18340772546688899385
13944108 23 18339083670995671220
14251764 75 18411141329141330845
14347329 18 18339635749854149232
14429114 114 18339919441044650473
14664723 55 18042975457303337244
14790565 3 18410574015226778231
14849402 71 18264770956739023826
15081414 286 17979631234890538959
15082195 135 18267562707272486031
15274700 147 15804703162217872252
15320291 9 17546715414833373653
15320295 198 17756708529883342917
15320467 1 18049721016373112092
15351339 4 18341323495976519769
16067689 134 18197511635613486460
16112460 7 18412267224590390600
16708801 149 18266439048821639681
16728433 281 17974019641803477404
16760501 71 18338238150927655521
16992779 147 18267034851454285369
17627616 140 18412262814017686849
19302320 297 18265896852223922467
20691028 202 18199182898368189457
22122407 14 18410016532909455227
245318 6 18187094978468178269
4173938 77 18268160751097571637
437795 171 18261948544782469053
437795 96 17753604642828439317
508180 173 18341342136899014178
5104073 3 18113898213465385715
5223283 242 17627819434030364942
53794403 172 18338803312219691030
550186 72 18050003591431091311
57724786 102 18340202973569217367
5951187 136 18200324212258374206
6058803 2 18268970056439976999
7970288 3 8467473181795434950

> <PUBCHEM_SHAPE_MULTIPOLES>
594.94
16.91
7.65
0.95
9.01
0.11
0.07
21.92
-0.83
-4.98
-1.16
1.15
0.38
-2.58

> <PUBCHEM_SHAPE_SELFOVERLAP>
1330.404

> <PUBCHEM_SHAPE_VOLUME>
315.8

> <PUBCHEM_COORDINATE_TYPE>
2
5
10

$$$$
