9906347
  -OEChem-05102415013D

 29 31  0     0  0  0  0  0  0999 V2000
    6.1386   -1.2607   -1.3820 Br  0  0  0  0  0  0  0  0  0  0  0  0
   -3.5877    0.8638   -0.7530 S   0  0  0  0  0  0  0  0  0  0  0  0
    0.9019    0.0622    1.3231 O   0  0  0  0  0  0  0  0  0  0  0  0
   -5.3424   -1.5496   -0.6078 O   0  0  0  0  0  0  0  0  0  0  0  0
   -0.2976    3.1240   -0.2567 N   0  0  0  0  0  0  0  0  0  0  0  0
   -3.8842   -2.9161    0.4886 N   0  0  0  0  0  0  0  0  0  0  0  0
   -1.2449    0.5484    0.2931 C   0  0  0  0  0  0  0  0  0  0  0  0
   -2.0341    1.4977   -0.3627 C   0  0  0  0  0  0  0  0  0  0  0  0
    0.0575    0.9204    0.6779 C   0  0  0  0  0  0  0  0  0  0  0  0
   -1.9520   -0.6897    0.4572 C   0  0  0  0  0  0  0  0  0  0  0  0
   -3.2239   -0.6522   -0.0632 C   0  0  0  0  0  0  0  0  0  0  0  0
   -1.5492    2.7794   -0.6309 C   0  0  0  0  0  0  0  0  0  0  0  0
    0.4636    2.2099    0.3756 C   0  0  0  0  0  0  0  0  0  0  0  0
    2.1006   -0.2402    0.7041 C   0  0  0  0  0  0  0  0  0  0  0  0
   -4.2110   -1.6823   -0.0858 C   0  0  0  0  0  0  0  0  0  0  0  0
    2.1063   -0.5413   -0.6468 C   0  0  0  0  0  0  0  0  0  0  0  0
    3.2667   -0.2359    1.4500 C   0  0  0  0  0  0  0  0  0  0  0  0
    3.3154   -0.8478   -1.2712 C   0  0  0  0  0  0  0  0  0  0  0  0
    4.4759   -0.5421    0.8257 C   0  0  0  0  0  0  0  0  0  0  0  0
    4.5003   -0.8480   -0.5351 C   0  0  0  0  0  0  0  0  0  0  0  0
   -1.5176   -1.5557    0.9412 H   0  0  0  0  0  0  0  0  0  0  0  0
   -2.1327    3.5389   -1.1367 H   0  0  0  0  0  0  0  0  0  0  0  0
    1.4513    2.5679    0.6517 H   0  0  0  0  0  0  0  0  0  0  0  0
    1.1961   -0.5670   -1.2383 H   0  0  0  0  0  0  0  0  0  0  0  0
    3.2494    0.0023    2.5093 H   0  0  0  0  0  0  0  0  0  0  0  0
    3.3167   -1.0878   -2.3314 H   0  0  0  0  0  0  0  0  0  0  0  0
    5.3901   -0.5374    1.4138 H   0  0  0  0  0  0  0  0  0  0  0  0
   -2.9893   -3.1100    0.9242 H   0  0  0  0  0  0  0  0  0  0  0  0
   -4.5563   -3.6764    0.4858 H   0  0  0  0  0  0  0  0  0  0  0  0
  1 20  1  0  0  0  0
  2  8  1  0  0  0  0
  2 11  1  0  0  0  0
  3  9  1  0  0  0  0
  3 14  1  0  0  0  0
  4 15  2  0  0  0  0
  5 12  2  0  0  0  0
  5 13  1  0  0  0  0
  6 15  1  0  0  0  0
  6 28  1  0  0  0  0
  6 29  1  0  0  0  0
  7  8  2  0  0  0  0
  7  9  1  0  0  0  0
  7 10  1  0  0  0  0
  8 12  1  0  0  0  0
  9 13  2  0  0  0  0
 10 11  2  0  0  0  0
 10 21  1  0  0  0  0
 11 15  1  0  0  0  0
 12 22  1  0  0  0  0
 13 23  1  0  0  0  0
 14 16  2  0  0  0  0
 14 17  1  0  0  0  0
 16 18  1  0  0  0  0
 16 24  1  0  0  0  0
 17 19  2  0  0  0  0
 17 25  1  0  0  0  0
 18 20  2  0  0  0  0
 18 26  1  0  0  0  0
 19 20  1  0  0  0  0
 19 27  1  0  0  0  0
M  END
> <PUBCHEM_COMPOUND_CID>
9906347

> <PUBCHEM_CONFORMER_RMSD>
0.6

> <PUBCHEM_CONFORMER_DIVERSEORDER>
1
4
12
14
30
28
11
19
20
18
27
17
29
15
3
13
16
8
2
7
5
9
21
6
22
10
25
26
23
24

> <PUBCHEM_MMFF94_PARTIAL_CHARGES>
28
1 -0.11
10 -0.15
11 -0.05
12 0.16
13 0.16
14 0.08
15 0.71
16 -0.15
17 -0.15
18 -0.15
19 -0.15
2 -0.08
20 0.11
21 0.15
22 0.15
23 0.15
24 0.15
25 0.15
26 0.15
27 0.15
28 0.37
29 0.37
3 -0.17
4 -0.57
5 -0.62
6 -0.8
8 0.04
9 0.08

> <PUBCHEM_EFFECTIVE_ROTOR_COUNT>
3

> <PUBCHEM_PHARMACOPHORE_FEATURES>
8
1 1 hydrophobe
1 3 acceptor
1 4 acceptor
1 5 acceptor
1 6 donor
5 2 7 8 10 11 rings
6 14 16 17 18 19 20 rings
6 5 7 8 9 12 13 rings

> <PUBCHEM_HEAVY_ATOM_COUNT>
20

> <PUBCHEM_ATOM_DEF_STEREO_COUNT>
0

> <PUBCHEM_ATOM_UDEF_STEREO_COUNT>
0

> <PUBCHEM_BOND_DEF_STEREO_COUNT>
0

> <PUBCHEM_BOND_UDEF_STEREO_COUNT>
0

> <PUBCHEM_ISOTOPIC_ATOM_COUNT>
0

> <PUBCHEM_COMPONENT_COUNT>
1

> <PUBCHEM_CACTVS_TAUTO_COUNT>
2

> <PUBCHEM_CONFORMER_ID>
009728AB00000001

> <PUBCHEM_MMFF94_ENERGY>
57.1617

> <PUBCHEM_FEATURE_SELFOVERLAP>
40.661

> <PUBCHEM_SHAPE_FINGERPRINT>
10042902 136 17845371222668199199
11089746 13 17095815348059296238
12236239 1 17313387764591986296
12363563 72 18409733992880958195
12403259 327 15625662863906424675
12553582 1 18333731334185515283
12788726 201 18187083906063217625
12841375 25 18410008875272669553
13103583 49 15195289745818167519
13402501 40 18060706073937666206
13544653 18 17775562052646744081
14386348 63 18131912637279680742
14790565 3 17833827167217000653
15842332 3 17460587022870594152
17357779 13 18271508858641071397
17870717 6 18339645546721815943
1813 80 18412266168228259061
18222031 100 18342734165236904671
19141452 34 17917706950873507711
193927 3 18342460386978764619
200 152 17458349615328546520
20300324 65 18261119517646754428
20374829 77 18409724071743894219
20403669 9 18412259566979894495
20645477 70 18121206852259903223
20871999 31 18333450924086055599
21065201 7 18268140968910638682
21307412 95 18412823616862130447
21728266 224 18115572761115390402
22182313 1 18193251170079438265
2297311 6 18411143515089878086
23379529 103 18194970861947192355
23402539 116 18260830363199784350
23557571 272 18200032833213685332
23559900 14 18196927782701977586
238078 22 18335704931391858601
2838139 119 14201111327941439974
3004659 81 18186519925212260478
314173 85 18412262856934990275
335352 9 18408880738405297437
4921388 177 18198630921481007716
5104073 3 17489304119415971122
5352402 22 17060625498906246110
59755656 520 17768538187648689465
621550 5 17989205941137864200
6669772 16 17766286757909320356
7364860 26 18051970613258737377
7495541 125 17917993859210291502
84936 182 8357169634331716023
9709674 26 18054505812078138582

> <PUBCHEM_SHAPE_MULTIPOLES>
399.68
11.28
2.67
1.22
7.96
1
0.05
-8.74
-3.54
-3.61
-0.29
1.31
-0.11
1.04

> <PUBCHEM_SHAPE_SELFOVERLAP>
856.559

> <PUBCHEM_SHAPE_VOLUME>
226.1

> <PUBCHEM_COORDINATE_TYPE>
2
5
10

$$$$
18516271
  -OEChem-05102415013D

 29 31  0     0  0  0  0  0  0999 V2000
   -3.4687    0.8988   -0.7181 S   0  0  0  0  0  0  0  0  0  0  0  0
    3.5634   -1.3776   -2.4294 F   0  0  0  0  0  0  0  0  0  0  0  0
    1.0452    0.1267    1.3160 O   0  0  0  0  0  0  0  0  0  0  0  0
   -5.2584   -1.5010   -0.4339 O   0  0  0  0  0  0  0  0  0  0  0  0
   -0.1559    3.1482   -0.3383 N   0  0  0  0  0  0  0  0  0  0  0  0
   -3.7785   -2.8439    0.6417 N   0  0  0  0  0  0  0  0  0  0  0  0
   -1.1130    0.5976    0.3031 C   0  0  0  0  0  0  0  0  0  0  0  0
   -1.9051    1.5326   -0.3697 C   0  0  0  0  0  0  0  0  0  0  0  0
    0.1975    0.9713    0.6574 C   0  0  0  0  0  0  0  0  0  0  0  0
   -1.8264   -0.6297    0.5148 C   0  0  0  0  0  0  0  0  0  0  0  0
   -3.1055   -0.5984    0.0121 C   0  0  0  0  0  0  0  0  0  0  0  0
   -1.4153    2.8018   -0.6837 C   0  0  0  0  0  0  0  0  0  0  0  0
    0.6081    2.2480    0.3103 C   0  0  0  0  0  0  0  0  0  0  0  0
    2.2350   -0.2452    0.7628 C   0  0  0  0  0  0  0  0  0  0  0  0
   -4.1001   -1.6213    0.0351 C   0  0  0  0  0  0  0  0  0  0  0  0
    2.2917   -0.6290   -0.5771 C   0  0  0  0  0  0  0  0  0  0  0  0
    3.3955   -0.2417    1.5368 C   0  0  0  0  0  0  0  0  0  0  0  0
    3.5089   -1.0092   -1.1427 C   0  0  0  0  0  0  0  0  0  0  0  0
    4.6125   -0.6222    0.9713 C   0  0  0  0  0  0  0  0  0  0  0  0
    4.6691   -1.0059   -0.3686 C   0  0  0  0  0  0  0  0  0  0  0  0
   -1.3916   -1.4842    1.0186 H   0  0  0  0  0  0  0  0  0  0  0  0
   -2.0007    3.5501   -1.2037 H   0  0  0  0  0  0  0  0  0  0  0  0
    1.6034    2.6045    0.5596 H   0  0  0  0  0  0  0  0  0  0  0  0
    1.4001   -0.6529   -1.1974 H   0  0  0  0  0  0  0  0  0  0  0  0
    3.3575    0.0567    2.5809 H   0  0  0  0  0  0  0  0  0  0  0  0
    5.5160   -0.6193    1.5740 H   0  0  0  0  0  0  0  0  0  0  0  0
    5.6164   -1.3019   -0.8094 H   0  0  0  0  0  0  0  0  0  0  0  0
   -2.8742   -3.0393    1.0569 H   0  0  0  0  0  0  0  0  0  0  0  0
   -4.4636   -3.5914    0.6830 H   0  0  0  0  0  0  0  0  0  0  0  0
  1  8  1  0  0  0  0
  1 11  1  0  0  0  0
  2 18  1  0  0  0  0
  3  9  1  0  0  0  0
  3 14  1  0  0  0  0
  4 15  2  0  0  0  0
  5 12  2  0  0  0  0
  5 13  1  0  0  0  0
  6 15  1  0  0  0  0
  6 28  1  0  0  0  0
  6 29  1  0  0  0  0
  7  8  2  0  0  0  0
  7  9  1  0  0  0  0
  7 10  1  0  0  0  0
  8 12  1  0  0  0  0
  9 13  2  0  0  0  0
 10 11  2  0  0  0  0
 10 21  1  0  0  0  0
 11 15  1  0  0  0  0
 12 22  1  0  0  0  0
 13 23  1  0  0  0  0
 14 16  2  0  0  0  0
 14 17  1  0  0  0  0
 16 18  1  0  0  0  0
 16 24  1  0  0  0  0
 17 19  2  0  0  0  0
 17 25  1  0  0  0  0
 18 20  2  0  0  0  0
 19 20  1  0  0  0  0
 19 26  1  0  0  0  0
 20 27  1  0  0  0  0
M  END
> <PUBCHEM_COMPOUND_CID>
18516271

> <PUBCHEM_CONFORMER_RMSD>
0.6

> <PUBCHEM_CONFORMER_DIVERSEORDER>
2
29
8
65
59
70
57
50
24
16
61
60
67
5
64
58
66
13
19
15
54
53
6
72
7
52
71
14
23
28
63
37
20
38
69
30
35
68
25
40
33
55
31
56
32
27
26
34
62
39
12
49
43
36
41
17
21
45
11
51
47
3
22
18
42
46
4
44
48
9
10
1

> <PUBCHEM_MMFF94_PARTIAL_CHARGES>
28
1 -0.08
10 -0.15
11 -0.05
12 0.16
13 0.16
14 0.08
15 0.71
16 -0.15
17 -0.15
18 0.19
19 -0.15
2 -0.19
20 -0.15
21 0.15
22 0.15
23 0.15
24 0.15
25 0.15
26 0.15
27 0.15
28 0.37
29 0.37
3 -0.17
4 -0.57
5 -0.62
6 -0.8
8 0.04
9 0.08

> <PUBCHEM_EFFECTIVE_ROTOR_COUNT>
3

> <PUBCHEM_PHARMACOPHORE_FEATURES>
7
1 3 acceptor
1 4 acceptor
1 5 acceptor
1 6 donor
5 1 7 8 10 11 rings
6 14 16 17 18 19 20 rings
6 5 7 8 9 12 13 rings

> <PUBCHEM_HEAVY_ATOM_COUNT>
20

> <PUBCHEM_ATOM_DEF_STEREO_COUNT>
0

> <PUBCHEM_ATOM_UDEF_STEREO_COUNT>
0

> <PUBCHEM_BOND_DEF_STEREO_COUNT>
0

> <PUBCHEM_BOND_UDEF_STEREO_COUNT>
0

> <PUBCHEM_ISOTOPIC_ATOM_COUNT>
0

> <PUBCHEM_COMPONENT_COUNT>
1

> <PUBCHEM_CACTVS_TAUTO_COUNT>
2

> <PUBCHEM_CONFORMER_ID>
011A892F00000002

> <PUBCHEM_MMFF94_ENERGY>
56.6549

> <PUBCHEM_FEATURE_SELFOVERLAP>
35.587

> <PUBCHEM_SHAPE_FINGERPRINT>
11543360 7 15140960686125232531
11578080 2 13108107563408422714
12173636 292 17686893921610709468
12236239 1 17240763917770780072
12363563 72 18408888464028199699
12553582 1 18261115183908767099
12596599 1 18341621399192256729
12841375 25 18408881875817295465
12892183 10 16415765227660782915
13544653 18 17775563134967953113
14252887 29 17846779624333609850
14386348 63 18130785633608460478
14790565 3 17761488089543862189
15342816 4 18334290985387632154
16752209 62 18040990718075588075
17349148 13 17095803214249164506
17357779 13 18271228474538555173
1813 80 18411707607752448309
18186145 218 12179849364099184724
19141452 34 17988639740205429127
192875 21 16660363658597586628
193927 3 18342183310159399819
200 152 17167863032763640232
20374829 77 18408879646819037075
20388580 30 18334859471422120125
20403669 9 18411979187167116279
20645477 70 18120927567663765943
20871999 31 18260548909455141479
21079973 296 18341324518405114808
21427221 339 12751245748807589100
21728266 224 18042669638351284962
221490 88 17971473150806802219
22182313 1 18191843795227539977
23402539 116 18188201023073169346
23557571 272 18270956835095318712
23559900 14 18196647390115171190
2748010 2 18191284148283232977
314173 41 18335702801346601179
314173 85 18412266146922149995
335352 9 18335129900718586477
4463277 69 18130222761359868735
474 4 14330545862902189634
4921388 177 18197785388444045140
5207 123 18341889736602448095
5352402 22 17275108327332130270
7364860 26 18123746727887863337
84936 182 8357168534693500663
9709674 26 18126280835996476854

> <PUBCHEM_SHAPE_MULTIPOLES>
386.47
9.56
2.74
1.3
1.59
1.31
-0.4
-7.42
-1.15
-2.99
-0.28
1.64
-0.36
1.09

> <PUBCHEM_SHAPE_SELFOVERLAP>
844.613

> <PUBCHEM_SHAPE_VOLUME>
211.7

> <PUBCHEM_COORDINATE_TYPE>
2
5
10

$$$$
49830789
  -OEChem-05102415013D

 28 30  0     0  0  0  0  0  0999 V2000
   -3.3020    0.7621    0.1803 S   0  0  0  0  0  0  0  0  0  0  0  0
    4.0677   -1.5319    1.8384 F   0  0  0  0  0  0  0  0  0  0  0  0
   -4.6442   -1.8803    0.0778 O   0  0  0  0  0  0  0  0  0  0  0  0
   -0.2990    3.4380    0.1409 N   0  0  0  0  0  0  0  0  0  0  0  0
   -2.7753   -3.1908   -0.1411 N   0  0  0  0  0  0  0  0  0  0  0  0
   -0.7262    0.6765   -0.0205 C   0  0  0  0  0  0  0  0  0  0  0  0
    0.5815    1.1951   -0.0827 C   0  0  0  0  0  0  0  0  0  0  0  0
   -1.7854    1.5775    0.1228 C   0  0  0  0  0  0  0  0  0  0  0  0
    1.7165    0.3185   -0.2316 C   0  0  0  0  0  0  0  0  0  0  0  0
   -1.2004   -0.6766   -0.0799 C   0  0  0  0  0  0  0  0  0  0  0  0
   -2.5687   -0.7683    0.0169 C   0  0  0  0  0  0  0  0  0  0  0  0
    0.7225    2.5707    0.0031 C   0  0  0  0  0  0  0  0  0  0  0  0
   -1.5585    2.9528    0.2022 C   0  0  0  0  0  0  0  0  0  0  0  0
    2.3563   -0.1919    0.8979 C   0  0  0  0  0  0  0  0  0  0  0  0
    2.1732   -0.0212   -1.5052 C   0  0  0  0  0  0  0  0  0  0  0  0
    3.4528   -1.0421    0.7540 C   0  0  0  0  0  0  0  0  0  0  0  0
    3.2698   -0.8712   -1.6491 C   0  0  0  0  0  0  0  0  0  0  0  0
   -3.3900   -1.9351   -0.0046 C   0  0  0  0  0  0  0  0  0  0  0  0
    3.9095   -1.3818   -0.5196 C   0  0  0  0  0  0  0  0  0  0  0  0
   -0.5475   -1.5337   -0.1898 H   0  0  0  0  0  0  0  0  0  0  0  0
    1.7025    3.0387   -0.0384 H   0  0  0  0  0  0  0  0  0  0  0  0
   -2.3548    3.6786    0.3132 H   0  0  0  0  0  0  0  0  0  0  0  0
    2.0132    0.0621    1.8980 H   0  0  0  0  0  0  0  0  0  0  0  0
    1.6855    0.3672   -2.3963 H   0  0  0  0  0  0  0  0  0  0  0  0
    3.6254   -1.1359   -2.6406 H   0  0  0  0  0  0  0  0  0  0  0  0
    4.7632   -2.0437   -0.6313 H   0  0  0  0  0  0  0  0  0  0  0  0
   -1.7714   -3.3121   -0.2195 H   0  0  0  0  0  0  0  0  0  0  0  0
   -3.3356   -4.0365   -0.1655 H   0  0  0  0  0  0  0  0  0  0  0  0
  1  8  1  0  0  0  0
  1 11  1  0  0  0  0
  2 16  1  0  0  0  0
  3 18  2  0  0  0  0
  4 12  1  0  0  0  0
  4 13  2  0  0  0  0
  5 18  1  0  0  0  0
  5 27  1  0  0  0  0
  5 28  1  0  0  0  0
  6  7  1  0  0  0  0
  6  8  2  0  0  0  0
  6 10  1  0  0  0  0
  7  9  1  0  0  0  0
  7 12  2  0  0  0  0
  8 13  1  0  0  0  0
  9 14  2  0  0  0  0
  9 15  1  0  0  0  0
 10 11  2  0  0  0  0
 10 20  1  0  0  0  0
 11 18  1  0  0  0  0
 12 21  1  0  0  0  0
 13 22  1  0  0  0  0
 14 16  1  0  0  0  0
 14 23  1  0  0  0  0
 15 17  2  0  0  0  0
 15 24  1  0  0  0  0
 16 19  2  0  0  0  0
 17 19  1  0  0  0  0
 17 25  1  0  0  0  0
 19 26  1  0  0  0  0
M  END
> <PUBCHEM_COMPOUND_CID>
49830789

> <PUBCHEM_CONFORMER_RMSD>
0.6

> <PUBCHEM_CONFORMER_DIVERSEORDER>
2
17
6
10
16
18
7
12
19
13
8
5
20
14
11
9
15
3
1
4

> <PUBCHEM_MMFF94_PARTIAL_CHARGES>
25
1 -0.08
10 -0.15
11 -0.05
12 0.16
13 0.16
14 -0.15
15 -0.15
16 0.19
17 -0.15
18 0.71
19 -0.15
2 -0.19
20 0.15
21 0.15
22 0.15
23 0.15
24 0.15
25 0.15
26 0.15
27 0.37
28 0.37
3 -0.57
4 -0.62
5 -0.8
8 0.04

> <PUBCHEM_EFFECTIVE_ROTOR_COUNT>
2

> <PUBCHEM_PHARMACOPHORE_FEATURES>
6
1 3 acceptor
1 4 acceptor
1 5 donor
5 1 6 8 10 11 rings
6 4 6 7 8 12 13 rings
6 9 14 15 16 17 19 rings

> <PUBCHEM_HEAVY_ATOM_COUNT>
19

> <PUBCHEM_ATOM_DEF_STEREO_COUNT>
0

> <PUBCHEM_ATOM_UDEF_STEREO_COUNT>
0

> <PUBCHEM_BOND_DEF_STEREO_COUNT>
0

> <PUBCHEM_BOND_UDEF_STEREO_COUNT>
0

> <PUBCHEM_ISOTOPIC_ATOM_COUNT>
0

> <PUBCHEM_COMPONENT_COUNT>
1

> <PUBCHEM_CACTVS_TAUTO_COUNT>
2

> <PUBCHEM_CONFORMER_ID>
02F85B8500000002

> <PUBCHEM_MMFF94_ENERGY>
50.5086

> <PUBCHEM_FEATURE_SELFOVERLAP>
30.512

> <PUBCHEM_SHAPE_FINGERPRINT>
10319926 262 18053359052253793722
10616163 171 18267027163315690534
11265709 11 18409728490811411843
114674 6 17178568161282176403
11578080 2 17604688020454190660
11582403 64 16257228622269876536
12236239 1 17677626254628005596
12363563 72 18411984688819626095
12553582 1 18410866476972931855
12788726 201 18335151868363345642
12824470 246 17968089802903605834
13052359 8 18119804716957123045
13083527 12 18194382610499218288
13140716 1 18413672422252241289
13538477 17 18189058586239928412
13878862 14 9651977574471043403
14178342 30 18193267503987576330
14787075 74 18117563040592097796
14790565 3 18051995627196281105
14863182 85 16821654644260165919
15042514 8 18266465308694571473
15342816 4 18336269028228194166
15442244 35 18269282416720535385
15885798 251 18412268363215010235
16752209 62 18190454957396300065
16945 1 18267591199637270837
18186145 218 12468641599308868710
19049666 15 17270321968828057772
19591789 44 17476659580861159913
20291156 8 18409171042864220303
20600515 1 18269264686510605272
20645477 70 17980198905392540855
20871998 22 18341615979012249809
21197605 99 13869274771968552474
21452121 199 18339076111315231236
21634736 98 18261121802310659228
21650355 55 18339350868915618408
21731516 1 18336276716092780473
22112679 90 17823988827296720492
23184049 29 18410853278295662728
23366157 5 18044943608549340037
23402539 116 18199173002510260349
23419403 2 17901629912820614564
23557571 272 18058450911554458012
23559900 14 18055356838921325558
23728640 28 18120369852621065379
257057 1 18338228370854995545
2748010 2 18341324595736053893
3084891 72 18195522598172968397
3091708 16 8919634707388757337
314173 41 18265904733721272015
5104073 3 18198634426944539851
58807428 26 17692537710843637513
5902787 121 18411138056149501940
602551 16 18269556027443334946
603831 33 18041858245998613588
7364860 26 17982738772409155125
77492 1 17605571946219115980
81228 2 18200038317723456897
9709674 26 18056483837860014510

> <PUBCHEM_SHAPE_MULTIPOLES>
371.76
7.4
3.35
1.1
1.22
1.23
-0.01
-6.29
0.54
-3.05
0.16
1.56
-0.35
-0.36

> <PUBCHEM_SHAPE_SELFOVERLAP>
817.625

> <PUBCHEM_SHAPE_VOLUME>
203.1

> <PUBCHEM_COORDINATE_TYPE>
2
5
10

$$$$
49830791
  -OEChem-05102415013D

 34 36  0     0  0  0  0  0  0999 V2000
    4.8854   -0.6709   -0.0003 S   0  0  0  0  0  0  0  0  0  0  0  0
   -4.2998   -0.0063    0.0017 S   0  0  0  0  0  0  0  0  0  0  0  0
    5.5265   -0.3241   -1.2614 O   0  0  0  0  0  0  0  0  0  0  0  0
    5.5136   -0.2932    1.2576 O   0  0  0  0  0  0  0  0  0  0  0  0
   -4.8361   -2.9228   -0.0109 O   0  0  0  0  0  0  0  0  0  0  0  0
   -2.1724    3.4074   -0.0049 N   0  0  0  0  0  0  0  0  0  0  0  0
   -2.6639   -3.6573    0.0058 N   0  0  0  0  0  0  0  0  0  0  0  0
   -0.6844    1.4991    0.0001 C   0  0  0  0  0  0  0  0  0  0  0  0
   -1.7953    0.6340    0.0013 C   0  0  0  0  0  0  0  0  0  0  0  0
    0.6588    0.9751    0.0002 C   0  0  0  0  0  0  0  0  0  0  0  0
    3.2583   -0.0373    0.0001 C   0  0  0  0  0  0  0  0  0  0  0  0
   -3.0724    1.2026   -0.0005 C   0  0  0  0  0  0  0  0  0  0  0  0
    1.3098    0.7245    1.2082 C   0  0  0  0  0  0  0  0  0  0  0  0
    1.3076    0.7192   -1.2078 C   0  0  0  0  0  0  0  0  0  0  0  0
   -1.8657   -0.7994    0.0038 C   0  0  0  0  0  0  0  0  0  0  0  0
    2.6095    0.2184    1.2082 C   0  0  0  0  0  0  0  0  0  0  0  0
    2.6074    0.2132   -1.2079 C   0  0  0  0  0  0  0  0  0  0  0  0
   -0.9412    2.8606   -0.0029 C   0  0  0  0  0  0  0  0  0  0  0  0
   -3.1570   -1.2713    0.0042 C   0  0  0  0  0  0  0  0  0  0  0  0
   -3.2465    2.5880   -0.0035 C   0  0  0  0  0  0  0  0  0  0  0  0
    4.6723   -2.4367    0.0036 C   0  0  0  0  0  0  0  0  0  0  0  0
   -3.6145   -2.6230    0.0052 C   0  0  0  0  0  0  0  0  0  0  0  0
    0.8177    0.9167    2.1587 H   0  0  0  0  0  0  0  0  0  0  0  0
    0.8139    0.9073   -2.1584 H   0  0  0  0  0  0  0  0  0  0  0  0
   -0.9923   -1.4399    0.0050 H   0  0  0  0  0  0  0  0  0  0  0  0
    3.0945    0.0241    2.1606 H   0  0  0  0  0  0  0  0  0  0  0  0
    3.0916    0.0151   -2.1600 H   0  0  0  0  0  0  0  0  0  0  0  0
   -0.1313    3.5852   -0.0043 H   0  0  0  0  0  0  0  0  0  0  0  0
   -4.2205    3.0619   -0.0050 H   0  0  0  0  0  0  0  0  0  0  0  0
    5.6624   -2.8975    0.0082 H   0  0  0  0  0  0  0  0  0  0  0  0
    4.1232   -2.7260    0.9016 H   0  0  0  0  0  0  0  0  0  0  0  0
    4.1286   -2.7312   -0.8961 H   0  0  0  0  0  0  0  0  0  0  0  0
   -2.9613   -4.6275    0.0003 H   0  0  0  0  0  0  0  0  0  0  0  0
   -1.6633   -3.4919    0.0118 H   0  0  0  0  0  0  0  0  0  0  0  0
  1  3  2  0  0  0  0
  1  4  2  0  0  0  0
  1 11  1  0  0  0  0
  1 21  1  0  0  0  0
  2 12  1  0  0  0  0
  2 19  1  0  0  0  0
  5 22  2  0  0  0  0
  6 18  1  0  0  0  0
  6 20  2  0  0  0  0
  7 22  1  0  0  0  0
  7 33  1  0  0  0  0
  7 34  1  0  0  0  0
  8  9  1  0  0  0  0
  8 10  1  0  0  0  0
  8 18  2  0  0  0  0
  9 12  2  0  0  0  0
  9 15  1  0  0  0  0
 10 13  2  0  0  0  0
 10 14  1  0  0  0  0
 11 16  2  0  0  0  0
 11 17  1  0  0  0  0
 12 20  1  0  0  0  0
 13 16  1  0  0  0  0
 13 23  1  0  0  0  0
 14 17  2  0  0  0  0
 14 24  1  0  0  0  0
 15 19  2  0  0  0  0
 15 25  1  0  0  0  0
 16 26  1  0  0  0  0
 17 27  1  0  0  0  0
 18 28  1  0  0  0  0
 19 22  1  0  0  0  0
 20 29  1  0  0  0  0
 21 30  1  0  0  0  0
 21 31  1  0  0  0  0
 21 32  1  0  0  0  0
M  END
> <PUBCHEM_COMPOUND_CID>
49830791

> <PUBCHEM_CONFORMER_RMSD>
0.6

> <PUBCHEM_CONFORMER_DIVERSEORDER>
1
17
10
9
15
12
11
6
13
18
7
5
8
14
16
2
4
3

> <PUBCHEM_MMFF94_PARTIAL_CHARGES>
28
1 1.2
11 -0.01
12 0.04
13 -0.15
14 -0.15
15 -0.15
16 -0.15
17 -0.15
18 0.16
19 -0.05
2 -0.08
20 0.16
21 0.11
22 0.71
23 0.15
24 0.15
25 0.15
26 0.15
27 0.15
28 0.15
29 0.15
3 -0.65
33 0.37
34 0.37
4 -0.65
5 -0.57
6 -0.62
7 -0.8

> <PUBCHEM_EFFECTIVE_ROTOR_COUNT>
3

> <PUBCHEM_PHARMACOPHORE_FEATURES>
8
1 3 acceptor
1 4 acceptor
1 5 acceptor
1 6 acceptor
1 7 donor
5 2 9 12 15 19 rings
6 10 11 13 14 16 17 rings
6 6 8 9 12 18 20 rings

> <PUBCHEM_HEAVY_ATOM_COUNT>
22

> <PUBCHEM_ATOM_DEF_STEREO_COUNT>
0

> <PUBCHEM_ATOM_UDEF_STEREO_COUNT>
0

> <PUBCHEM_BOND_DEF_STEREO_COUNT>
0

> <PUBCHEM_BOND_UDEF_STEREO_COUNT>
0

> <PUBCHEM_ISOTOPIC_ATOM_COUNT>
0

> <PUBCHEM_COMPONENT_COUNT>
1

> <PUBCHEM_CACTVS_TAUTO_COUNT>
2

> <PUBCHEM_CONFORMER_ID>
02F85B8700000001

> <PUBCHEM_MMFF94_ENERGY>
52.9764

> <PUBCHEM_FEATURE_SELFOVERLAP>
40.68

> <PUBCHEM_SHAPE_FINGERPRINT>
10319926 262 18198040535993639314
10366900 7 17916856928888689396
10595046 47 18334300881614761444
10616163 171 18410857633482288630
11056379 131 18339370668994375916
11796584 16 18197219153326017102
12236239 1 17604154726711695284
12363563 72 18267025140549280039
12523318 42 18340756079546786690
12553582 1 18264774440395013155
12616971 3 17241048700394560872
12633257 1 17846233158480183377
12990986 174 18338516451317431595
13140716 1 18342178920824311585
13167823 11 18188776037747883184
13583140 156 17916850358258418792
13590594 115 11924268444695035347
13631057 29 18411702110489825450
13911987 19 14635452458786931178
14251764 30 17971207052087948323
14844126 61 18409163316360688067
14866123 147 18412549787079537451
15042514 8 18410016529257909953
15099037 37 18343584044522191308
15250474 111 18189329087839396794
15352361 1 18339079405697714983
15927050 60 18125438602043004311
16752209 62 18261940874518652945
17492 89 18409731772699546222
17804303 29 18342457041019931897
19141452 34 18263647260144837156
200 152 16877946014233472956
20600515 1 18271816691632409845
21065201 7 18341041922637144960
21728266 224 18334849507329881146
23184049 29 18266456688853723625
23402539 116 18341043017801584149
23503958 8 18410009914496577642
23557571 272 18202007581814376652
23559900 14 18412535526944530968
23598288 3 18114762455421651821
3004659 81 18041557052289314503
335352 9 18410574003423330837
3421961 26 17980200009051059499
3882209 13 16975578510943533238
4214541 1 18338517418075326848
463206 1 18118683459588648499
5104073 3 18201716250151109232
559249 180 18043246847036790394
56633871 153 18197224865738659099
5924683 9 18411133619432395930
59755656 215 18339075995904970071
59755656 520 18126001564702550873
602551 16 18412261714457813120
633830 44 16661789678118820332
67856867 119 18188494687484324588
7970288 3 18266458904878162927
9709674 26 18199472077856462878

> <PUBCHEM_SHAPE_MULTIPOLES>
432.88
11.09
3.54
0.99
10.92
1.38
0
6.68
0.01
-5.47
0
1.14
-0.12
0.01

> <PUBCHEM_SHAPE_SELFOVERLAP>
928.589

> <PUBCHEM_SHAPE_VOLUME>
241.3

> <PUBCHEM_COORDINATE_TYPE>
2
5
10

$$$$
18516237
  -OEChem-05102415023D

 28 30  0     0  0  0  0  0  0999 V2000
   -3.4039    0.5992    0.0018 S   0  0  0  0  0  0  0  0  0  0  0  0
    5.0595   -1.8732   -0.0023 F   0  0  0  0  0  0  0  0  0  0  0  0
   -4.5751   -2.1253   -0.0126 O   0  0  0  0  0  0  0  0  0  0  0  0
   -0.5708    3.4545   -0.0026 N   0  0  0  0  0  0  0  0  0  0  0  0
   -2.6202   -3.3241    0.0053 N   0  0  0  0  0  0  0  0  0  0  0  0
   -0.8197    0.6668    0.0020 C   0  0  0  0  0  0  0  0  0  0  0  0
    0.4558    1.2632    0.0013 C   0  0  0  0  0  0  0  0  0  0  0  0
   -1.9385    1.5050    0.0005 C   0  0  0  0  0  0  0  0  0  0  0  0
    1.6475    0.4522    0.0004 C   0  0  0  0  0  0  0  0  0  0  0  0
   -1.2071   -0.7151    0.0042 C   0  0  0  0  0  0  0  0  0  0  0  0
   -2.5709   -0.8882    0.0038 C   0  0  0  0  0  0  0  0  0  0  0  0
    0.5080    2.6476   -0.0009 C   0  0  0  0  0  0  0  0  0  0  0  0
   -1.8003    2.8944   -0.0018 C   0  0  0  0  0  0  0  0  0  0  0  0
    2.2263    0.0616    1.2079 C   0  0  0  0  0  0  0  0  0  0  0  0
    2.2213    0.0570   -1.2081 C   0  0  0  0  0  0  0  0  0  0  0  0
    3.3788   -0.7239    1.2071 C   0  0  0  0  0  0  0  0  0  0  0  0
    3.3738   -0.7285   -1.2089 C   0  0  0  0  0  0  0  0  0  0  0  0
   -3.3171   -2.1043    0.0043 C   0  0  0  0  0  0  0  0  0  0  0  0
    3.9526   -1.1189   -0.0014 C   0  0  0  0  0  0  0  0  0  0  0  0
   -0.4980   -1.5337    0.0054 H   0  0  0  0  0  0  0  0  0  0  0  0
    1.4587    3.1739   -0.0022 H   0  0  0  0  0  0  0  0  0  0  0  0
   -2.6444    3.5731   -0.0031 H   0  0  0  0  0  0  0  0  0  0  0  0
    1.7915    0.3604    2.1590 H   0  0  0  0  0  0  0  0  0  0  0  0
    1.7828    0.3522   -2.1585 H   0  0  0  0  0  0  0  0  0  0  0  0
    3.8297   -1.0284    2.1470 H   0  0  0  0  0  0  0  0  0  0  0  0
    3.8208   -1.0365   -2.1495 H   0  0  0  0  0  0  0  0  0  0  0  0
   -1.6080   -3.3853    0.0120 H   0  0  0  0  0  0  0  0  0  0  0  0
   -3.1258   -4.2040   -0.0005 H   0  0  0  0  0  0  0  0  0  0  0  0
  1  8  1  0  0  0  0
  1 11  1  0  0  0  0
  2 19  1  0  0  0  0
  3 18  2  0  0  0  0
  4 12  1  0  0  0  0
  4 13  2  0  0  0  0
  5 18  1  0  0  0  0
  5 27  1  0  0  0  0
  5 28  1  0  0  0  0
  6  7  1  0  0  0  0
  6  8  2  0  0  0  0
  6 10  1  0  0  0  0
  7  9  1  0  0  0  0
  7 12  2  0  0  0  0
  8 13  1  0  0  0  0
  9 14  2  0  0  0  0
  9 15  1  0  0  0  0
 10 11  2  0  0  0  0
 10 20  1  0  0  0  0
 11 18  1  0  0  0  0
 12 21  1  0  0  0  0
 13 22  1  0  0  0  0
 14 16  1  0  0  0  0
 14 23  1  0  0  0  0
 15 17  2  0  0  0  0
 15 24  1  0  0  0  0
 16 19  2  0  0  0  0
 16 25  1  0  0  0  0
 17 19  1  0  0  0  0
 17 26  1  0  0  0  0
M  END
> <PUBCHEM_COMPOUND_CID>
18516237

> <PUBCHEM_CONFORMER_RMSD>
0.6

> <PUBCHEM_CONFORMER_DIVERSEORDER>
1
4
2
3

> <PUBCHEM_MMFF94_PARTIAL_CHARGES>
25
1 -0.08
10 -0.15
11 -0.05
12 0.16
13 0.16
14 -0.15
15 -0.15
16 -0.15
17 -0.15
18 0.71
19 0.19
2 -0.19
20 0.15
21 0.15
22 0.15
23 0.15
24 0.15
25 0.15
26 0.15
27 0.37
28 0.37
3 -0.57
4 -0.62
5 -0.8
8 0.04

> <PUBCHEM_EFFECTIVE_ROTOR_COUNT>
2

> <PUBCHEM_PHARMACOPHORE_FEATURES>
6
1 3 acceptor
1 4 acceptor
1 5 donor
5 1 6 8 10 11 rings
6 4 6 7 8 12 13 rings
6 9 14 15 16 17 19 rings

> <PUBCHEM_HEAVY_ATOM_COUNT>
19

> <PUBCHEM_ATOM_DEF_STEREO_COUNT>
0

> <PUBCHEM_ATOM_UDEF_STEREO_COUNT>
0

> <PUBCHEM_BOND_DEF_STEREO_COUNT>
0

> <PUBCHEM_BOND_UDEF_STEREO_COUNT>
0

> <PUBCHEM_ISOTOPIC_ATOM_COUNT>
0

> <PUBCHEM_COMPONENT_COUNT>
1

> <PUBCHEM_CACTVS_TAUTO_COUNT>
2

> <PUBCHEM_CONFORMER_ID>
011A890D00000001

> <PUBCHEM_MMFF94_ENERGY>
50.5371

> <PUBCHEM_FEATURE_SELFOVERLAP>
30.512

> <PUBCHEM_SHAPE_FINGERPRINT>
10319926 262 18124852609737818346
10616163 171 18338517413696138926
12236239 1 17604722032273332836
12363563 72 18411139181541917719
12403259 327 15410341086449328511
12500047 106 18050280367581236988
12553582 1 18337680805506077099
13140716 1 18413672422162602953
14787075 74 18043244846336683920
14790565 3 18122919633383372769
14863182 85 16749315579466687039
14866123 147 18268150860325926899
15042514 8 18338241453562528737
15442244 35 18267871756202798945
15885798 251 18411140281448996003
16752209 62 18189603948302369897
16945 1 18338797793239839809
17804303 29 18342458118961615281
18186145 218 11674872247926457092
19049666 15 17413591649610413524
19141452 34 18201722843020749355
19591789 44 17619922660320934345
20291156 8 18336265733909007187
20600515 1 18270967834359208452
20645477 70 17906166605661584791
20871998 22 18340204218972362185
20905425 154 18198064672824340014
21452121 199 18337666550277545472
21634736 98 18187653526375194724
21650355 55 18411696552259026937
221490 88 17974856373718323763
23184049 29 18410289246079093577
23366157 5 17971756820301349925
23402539 116 18270952428654052101
23557571 272 18201155439139035672
23559900 14 18269832009462666628
23598288 3 18042989582938959477
2748010 2 18267855246000671725
3084891 72 18267298730129591565
3091708 16 9206742477878817257
314173 41 18264775548185533899
335352 9 18410855448203486077
3421961 26 18195810901862693731
54173680 148 18410855425869001001
568465 68 17346878927544800014
5902787 121 18410008879172101937
602551 16 18268426846197257106
7364860 26 17909270522190701521
77492 1 17532382963285119944
7970288 3 18410292557499723299
81228 2 18342459184272078561
8863177 126 17608103275738156395
9709674 26 18055637218286042174

> <PUBCHEM_SHAPE_MULTIPOLES>
371.76
7.74
3.43
0.93
3.59
0.85
0
-6.8
-0.01
-3.3
0
0.9
-0.09
0

> <PUBCHEM_SHAPE_SELFOVERLAP>
817.778

> <PUBCHEM_SHAPE_VOLUME>
203.3

> <PUBCHEM_COORDINATE_TYPE>
2
5
10

$$$$
49830793
  -OEChem-05102415023D

 27 29  0     0  0  0  0  0  0999 V2000
   -3.3091    0.7579   -0.1786 S   0  0  0  0  0  0  0  0  0  0  0  0
    4.0653   -1.5239   -1.8402 F   0  0  0  0  0  0  0  0  0  0  0  0
   -2.6852   -3.1054    0.1436 O   0  0  0  0  0  0  0  0  0  0  0  0
   -4.6429   -1.9729   -0.0845 O   0  0  0  0  0  0  0  0  0  0  0  0
   -0.3077    3.4357   -0.1449 N   0  0  0  0  0  0  0  0  0  0  0  0
   -0.7333    0.6744    0.0227 C   0  0  0  0  0  0  0  0  0  0  0  0
    0.5740    1.1939    0.0845 C   0  0  0  0  0  0  0  0  0  0  0  0
   -1.7930    1.5744   -0.1228 C   0  0  0  0  0  0  0  0  0  0  0  0
    1.7097    0.3180    0.2324 C   0  0  0  0  0  0  0  0  0  0  0  0
   -1.2067   -0.6790    0.0843 C   0  0  0  0  0  0  0  0  0  0  0  0
   -2.5749   -0.7717   -0.0129 C   0  0  0  0  0  0  0  0  0  0  0  0
    0.7143    2.5694   -0.0044 C   0  0  0  0  0  0  0  0  0  0  0  0
   -1.5669    2.9497   -0.2051 C   0  0  0  0  0  0  0  0  0  0  0  0
    2.3501   -0.1903   -0.8978 C   0  0  0  0  0  0  0  0  0  0  0  0
    2.1699   -0.0189    1.5054 C   0  0  0  0  0  0  0  0  0  0  0  0
    3.4506   -1.0353   -0.7552 C   0  0  0  0  0  0  0  0  0  0  0  0
    3.2703   -0.8643    1.6481 C   0  0  0  0  0  0  0  0  0  0  0  0
    3.9108   -1.3723    0.5178 C   0  0  0  0  0  0  0  0  0  0  0  0
   -3.3952   -1.9392    0.0076 C   0  0  0  0  0  0  0  0  0  0  0  0
   -0.5601   -1.5414    0.1953 H   0  0  0  0  0  0  0  0  0  0  0  0
    1.6940    3.0380    0.0358 H   0  0  0  0  0  0  0  0  0  0  0  0
   -2.3636    3.6747   -0.3180 H   0  0  0  0  0  0  0  0  0  0  0  0
    2.0047    0.0621   -1.8976 H   0  0  0  0  0  0  0  0  0  0  0  0
    1.6825    0.3685    2.3970 H   0  0  0  0  0  0  0  0  0  0  0  0
    3.6286   -1.1269    2.6392 H   0  0  0  0  0  0  0  0  0  0  0  0
    4.7675   -2.0304    0.6286 H   0  0  0  0  0  0  0  0  0  0  0  0
   -3.2756   -3.8889    0.1542 H   0  0  0  0  0  0  0  0  0  0  0  0
  1  8  1  0  0  0  0
  1 11  1  0  0  0  0
  2 16  1  0  0  0  0
  3 19  1  0  0  0  0
  3 27  1  0  0  0  0
  4 19  2  0  0  0  0
  5 12  1  0  0  0  0
  5 13  2  0  0  0  0
  6  7  1  0  0  0  0
  6  8  2  0  0  0  0
  6 10  1  0  0  0  0
  7  9  1  0  0  0  0
  7 12  2  0  0  0  0
  8 13  1  0  0  0  0
  9 14  2  0  0  0  0
  9 15  1  0  0  0  0
 10 11  2  0  0  0  0
 10 20  1  0  0  0  0
 11 19  1  0  0  0  0
 12 21  1  0  0  0  0
 13 22  1  0  0  0  0
 14 16  1  0  0  0  0
 14 23  1  0  0  0  0
 15 17  2  0  0  0  0
 15 24  1  0  0  0  0
 16 18  2  0  0  0  0
 17 18  1  0  0  0  0
 17 25  1  0  0  0  0
 18 26  1  0  0  0  0
M  END
> <PUBCHEM_COMPOUND_CID>
49830793

> <PUBCHEM_CONFORMER_RMSD>
0.6

> <PUBCHEM_CONFORMER_DIVERSEORDER>
1
6
9
4
10
5
3
7
8
2

> <PUBCHEM_MMFF94_PARTIAL_CHARGES>
24
1 -0.08
10 -0.15
11 -0.05
12 0.16
13 0.16
14 -0.15
15 -0.15
16 0.19
17 -0.15
18 -0.15
19 0.81
2 -0.19
20 0.15
21 0.15
22 0.15
23 0.15
24 0.15
25 0.15
26 0.15
27 0.5
3 -0.65
4 -0.57
5 -0.62
8 0.04

> <PUBCHEM_EFFECTIVE_ROTOR_COUNT>
2

> <PUBCHEM_PHARMACOPHORE_FEATURES>
7
1 3 acceptor
1 4 acceptor
1 5 acceptor
3 3 4 19 anion
5 1 6 8 10 11 rings
6 5 6 7 8 12 13 rings
6 9 14 15 16 17 18 rings

> <PUBCHEM_HEAVY_ATOM_COUNT>
19

> <PUBCHEM_ATOM_DEF_STEREO_COUNT>
0

> <PUBCHEM_ATOM_UDEF_STEREO_COUNT>
0

> <PUBCHEM_BOND_DEF_STEREO_COUNT>
0

> <PUBCHEM_BOND_UDEF_STEREO_COUNT>
0

> <PUBCHEM_ISOTOPIC_ATOM_COUNT>
0

> <PUBCHEM_COMPONENT_COUNT>
1

> <PUBCHEM_CACTVS_TAUTO_COUNT>
1

> <PUBCHEM_CONFORMER_ID>
02F85B8900000001

> <PUBCHEM_MMFF94_ENERGY>
48.7101

> <PUBCHEM_FEATURE_SELFOVERLAP>
35.643

> <PUBCHEM_SHAPE_FINGERPRINT>
10319926 262 18051946188386101634
10616163 171 18265894666333806378
11582403 64 15896078682145456176
116883 192 18412261761718414029
12236239 1 17459476537722578632
12363563 72 18410008870724767519
12553582 1 18408045121593551619
12714826 92 18040431075579254757
13140716 1 18411695500366625073
13538477 17 18043246847422158960
14178342 30 18191569870913755242
14790565 3 18050578348102292901
14863182 85 16819965785741408527
15042514 8 18265052436273991353
15342816 4 18334008419499933594
15442244 35 18338799039397261481
15885798 251 18410291445619080123
16752209 62 18117547432216850217
16945 1 18265608784467358001
17804303 29 18341331115380052865
19049666 15 17485078597145096216
19591789 44 17547579176037749953
20291156 8 18335700576426752883
20600515 1 18267568144379751496
20645477 70 18049436247778626879
20871998 22 18339639057089664937
20871999 31 18335709325116756054
21452121 199 18337101388410704992
21634736 98 18187654617270592156
23184049 29 18409158935198627049
23366157 5 17970346134024365677
23557571 272 18271799069882150312
23559900 14 18126563410996342814
2748010 2 18339063995449937525
3084891 72 18194108626203798197
3091708 16 9567872665406523785
314173 41 18263928911315609051
458136 41 16971684611698177841
5902787 121 18336539494992559576
602551 16 18267860584802964666
6049 1 17988638546051260792
7364860 26 18052257594072155073
77492 1 17387420030285165232
7970288 3 18409445916403403019
81228 2 18269550555254398145
9709674 26 18127125269574604806

> <PUBCHEM_SHAPE_MULTIPOLES>
370.87
7.38
3.32
1.1
1.29
1.27
0
-6.24
-0.55
-3.07
-0.16
1.56
-0.34
0.35

> <PUBCHEM_SHAPE_SELFOVERLAP>
816.888

> <PUBCHEM_SHAPE_VOLUME>
202.1

> <PUBCHEM_COORDINATE_TYPE>
2
5
10

$$$$
18516214
  -OEChem-05102415023D

 28 30  0     0  0  0  0  0  0999 V2000
   -3.4854    0.6062    0.0361 S   0  0  0  0  0  0  0  0  0  0  0  0
    1.6637    0.4292   -2.2084 F   0  0  0  0  0  0  0  0  0  0  0  0
    4.9556   -1.9382    0.2248 F   0  0  0  0  0  0  0  0  0  0  0  0
   -4.6783   -2.1071   -0.0643 O   0  0  0  0  0  0  0  0  0  0  0  0
   -0.6295    3.4358    0.1651 N   0  0  0  0  0  0  0  0  0  0  0  0
   -2.7347   -3.3232   -0.0179 N   0  0  0  0  0  0  0  0  0  0  0  0
   -0.9017    0.6509    0.1072 C   0  0  0  0  0  0  0  0  0  0  0  0
    0.3783    1.2359    0.1527 C   0  0  0  0  0  0  0  0  0  0  0  0
   -2.0130    1.4988    0.0924 C   0  0  0  0  0  0  0  0  0  0  0  0
    1.5628    0.4146    0.1677 C   0  0  0  0  0  0  0  0  0  0  0  0
   -1.3005   -0.7273    0.0713 C   0  0  0  0  0  0  0  0  0  0  0  0
   -2.6652   -0.8883    0.0308 C   0  0  0  0  0  0  0  0  0  0  0  0
    0.4420    2.6195    0.1797 C   0  0  0  0  0  0  0  0  0  0  0  0
   -1.8632    2.8867    0.1216 C   0  0  0  0  0  0  0  0  0  0  0  0
    2.1698    0.0367   -1.0300 C   0  0  0  0  0  0  0  0  0  0  0  0
    2.1019   -0.0025    1.3847 C   0  0  0  0  0  0  0  0  0  0  0  0
    3.3159   -0.7580   -1.0107 C   0  0  0  0  0  0  0  0  0  0  0  0
    3.2479   -0.7973    1.4041 C   0  0  0  0  0  0  0  0  0  0  0  0
   -3.4212   -2.0974   -0.0132 C   0  0  0  0  0  0  0  0  0  0  0  0
    3.8549   -1.1750    0.2063 C   0  0  0  0  0  0  0  0  0  0  0  0
   -0.5985   -1.5520    0.0752 H   0  0  0  0  0  0  0  0  0  0  0  0
    1.3968    3.1373    0.2144 H   0  0  0  0  0  0  0  0  0  0  0  0
   -2.7013    3.5728    0.1113 H   0  0  0  0  0  0  0  0  0  0  0  0
    1.6413    0.2825    2.3278 H   0  0  0  0  0  0  0  0  0  0  0  0
    3.7885   -1.0524   -1.9430 H   0  0  0  0  0  0  0  0  0  0  0  0
    3.6679   -1.1224    2.3513 H   0  0  0  0  0  0  0  0  0  0  0  0
   -1.7235   -3.3934    0.0147 H   0  0  0  0  0  0  0  0  0  0  0  0
   -3.2473   -4.1983   -0.0549 H   0  0  0  0  0  0  0  0  0  0  0  0
  1  9  1  0  0  0  0
  1 12  1  0  0  0  0
  2 15  1  0  0  0  0
  3 20  1  0  0  0  0
  4 19  2  0  0  0  0
  5 13  1  0  0  0  0
  5 14  2  0  0  0  0
  6 19  1  0  0  0  0
  6 27  1  0  0  0  0
  6 28  1  0  0  0  0
  7  8  1  0  0  0  0
  7  9  2  0  0  0  0
  7 11  1  0  0  0  0
  8 10  1  0  0  0  0
  8 13  2  0  0  0  0
  9 14  1  0  0  0  0
 10 15  2  0  0  0  0
 10 16  1  0  0  0  0
 11 12  2  0  0  0  0
 11 21  1  0  0  0  0
 12 19  1  0  0  0  0
 13 22  1  0  0  0  0
 14 23  1  0  0  0  0
 15 17  1  0  0  0  0
 16 18  2  0  0  0  0
 16 24  1  0  0  0  0
 17 20  2  0  0  0  0
 17 25  1  0  0  0  0
 18 20  1  0  0  0  0
 18 26  1  0  0  0  0
M  END
> <PUBCHEM_COMPOUND_CID>
18516214

> <PUBCHEM_CONFORMER_RMSD>
0.6

> <PUBCHEM_CONFORMER_DIVERSEORDER>
1
15
6
10
14
5
16
12
13
9
8
4
11
7
2
3

> <PUBCHEM_MMFF94_PARTIAL_CHARGES>
25
1 -0.08
11 -0.15
12 -0.05
13 0.16
14 0.16
15 0.19
16 -0.15
17 -0.15
18 -0.15
19 0.71
2 -0.19
20 0.19
21 0.15
22 0.15
23 0.15
24 0.15
25 0.15
26 0.15
27 0.37
28 0.37
3 -0.19
4 -0.57
5 -0.62
6 -0.8
9 0.04

> <PUBCHEM_EFFECTIVE_ROTOR_COUNT>
2

> <PUBCHEM_PHARMACOPHORE_FEATURES>
6
1 4 acceptor
1 5 acceptor
1 6 donor
5 1 7 9 11 12 rings
6 10 15 16 17 18 20 rings
6 5 7 8 9 13 14 rings

> <PUBCHEM_HEAVY_ATOM_COUNT>
20

> <PUBCHEM_ATOM_DEF_STEREO_COUNT>
0

> <PUBCHEM_ATOM_UDEF_STEREO_COUNT>
0

> <PUBCHEM_BOND_DEF_STEREO_COUNT>
0

> <PUBCHEM_BOND_UDEF_STEREO_COUNT>
0

> <PUBCHEM_ISOTOPIC_ATOM_COUNT>
0

> <PUBCHEM_COMPONENT_COUNT>
1

> <PUBCHEM_CACTVS_TAUTO_COUNT>
2

> <PUBCHEM_CONFORMER_ID>
011A88F600000001

> <PUBCHEM_MMFF94_ENERGY>
50.6464

> <PUBCHEM_FEATURE_SELFOVERLAP>
30.512

> <PUBCHEM_SHAPE_FINGERPRINT>
10616163 171 18338797789103212658
11578080 2 17677587857389038044
11582403 64 16113667617982119160
12236239 1 17677624046867336688
12363563 72 18340487863007745087
12500047 106 18050561842499912440
12553582 1 18338527433838834451
13083527 12 17909244112362685769
13140716 1 18342177786820946857
13538477 17 18189055313242811572
13583140 156 17700667629174723914
14115302 16 18259983743314764285
14178342 30 17987532441495678587
14787075 74 18043807796247913736
14863182 85 16749595959305864935
15042514 8 18338803299767364353
15885798 251 18411702131954099635
16752209 62 18190167997846527369
16945 1 18267022765100322281
17804303 29 18342455920006912129
18186145 218 11819270001842674976
19049666 15 17342380679441490012
19591789 44 17692826887023549257
20291156 8 18336264630139380955
20600515 1 18271249317709575756
20645477 70 17907292509916135711
20871998 22 18340484594537639465
21452121 199 18337949116149556120
21650355 55 18340201899616240793
21731516 1 18336274538718467321
22112679 90 17969519112465046204
23184049 29 18410852196095799001
232386 152 18408885122522459908
23366157 5 18044377364345459557
23402539 116 18198892613886066405
23419403 2 17466457538621108828
23557571 272 18058447617108885144
23559900 14 18126843790756386294
23598288 3 18043269958498968361
23728640 28 18192715540259421801
2748010 2 18268419299866176557
3084891 72 18267861680125191365
3091708 16 9207022857691595569
314173 41 18265337398701187011
335352 9 18411135823689661397
3421961 26 18196090177884746683
463206 1 18262513809723197803
568465 68 17203607064829374014
5902787 121 18411418453231891585
602551 16 18268989791797695378
7364860 26 17909832372732702457
77492 1 17605284977894928592
7970288 3 18410572928759516235
81228 2 18200602380273907025
9709674 26 18056199068669826342

> <PUBCHEM_SHAPE_MULTIPOLES>
385.06
7.59
3.34
1.1
2.26
0.76
-0.24
-6.67
0.28
-3.27
0.17
1.16
-0.03
-0.25

> <PUBCHEM_SHAPE_SELFOVERLAP>
849.72

> <PUBCHEM_SHAPE_VOLUME>
209.8

> <PUBCHEM_COORDINATE_TYPE>
2
5
10

$$$$
49830794
  -OEChem-05102415033D

 27 29  0     0  0  0  0  0  0999 V2000
   -3.0134    0.9777    0.0003 S   0  0  0  0  0  0  0  0  0  0  0  0
   -2.7522   -2.9403   -0.0009 O   0  0  0  0  0  0  0  0  0  0  0  0
   -4.5999   -1.6162    0.0000 O   0  0  0  0  0  0  0  0  0  0  0  0
    0.2323    3.3537   -0.0014 N   0  0  0  0  0  0  0  0  0  0  0  0
   -0.4505    0.6394    0.0009 C   0  0  0  0  0  0  0  0  0  0  0  0
    0.9027    1.0286    0.0009 C   0  0  0  0  0  0  0  0  0  0  0  0
   -1.4240    1.6427   -0.0001 C   0  0  0  0  0  0  0  0  0  0  0  0
    1.9541    0.0421    0.0002 C   0  0  0  0  0  0  0  0  0  0  0  0
   -1.0496   -0.6647    0.0015 C   0  0  0  0  0  0  0  0  0  0  0  0
   -2.4236   -0.6219    0.0011 C   0  0  0  0  0  0  0  0  0  0  0  0
    1.1713    2.3878   -0.0002 C   0  0  0  0  0  0  0  0  0  0  0  0
   -1.0697    2.9932   -0.0012 C   0  0  0  0  0  0  0  0  0  0  0  0
    2.4641   -0.4342    1.2080 C   0  0  0  0  0  0  0  0  0  0  0  0
    2.4613   -0.4361   -1.2079 C   0  0  0  0  0  0  0  0  0  0  0  0
    3.4815   -1.3887    1.2076 C   0  0  0  0  0  0  0  0  0  0  0  0
    3.4785   -1.3904   -1.2084 C   0  0  0  0  0  0  0  0  0  0  0  0
    3.9886   -1.8668   -0.0006 C   0  0  0  0  0  0  0  0  0  0  0  0
   -3.3516   -1.7060    0.0002 C   0  0  0  0  0  0  0  0  0  0  0  0
   -0.4849   -1.5896    0.0019 H   0  0  0  0  0  0  0  0  0  0  0  0
    2.1928    2.7587   -0.0006 H   0  0  0  0  0  0  0  0  0  0  0  0
   -1.7971    3.7958   -0.0020 H   0  0  0  0  0  0  0  0  0  0  0  0
    2.0799   -0.0724    2.1588 H   0  0  0  0  0  0  0  0  0  0  0  0
    2.0750   -0.0757   -2.1585 H   0  0  0  0  0  0  0  0  0  0  0  0
    3.8785   -1.7597    2.1479 H   0  0  0  0  0  0  0  0  0  0  0  0
    3.8735   -1.7629   -2.1491 H   0  0  0  0  0  0  0  0  0  0  0  0
    4.7805   -2.6100   -0.0010 H   0  0  0  0  0  0  0  0  0  0  0  0
   -3.4147   -3.6638   -0.0016 H   0  0  0  0  0  0  0  0  0  0  0  0
  1  7  1  0  0  0  0
  1 10  1  0  0  0  0
  2 18  1  0  0  0  0
  2 27  1  0  0  0  0
  3 18  2  0  0  0  0
  4 11  1  0  0  0  0
  4 12  2  0  0  0  0
  5  6  1  0  0  0  0
  5  7  2  0  0  0  0
  5  9  1  0  0  0  0
  6  8  1  0  0  0  0
  6 11  2  0  0  0  0
  7 12  1  0  0  0  0
  8 13  2  0  0  0  0
  8 14  1  0  0  0  0
  9 10  2  0  0  0  0
  9 19  1  0  0  0  0
 10 18  1  0  0  0  0
 11 20  1  0  0  0  0
 12 21  1  0  0  0  0
 13 15  1  0  0  0  0
 13 22  1  0  0  0  0
 14 16  2  0  0  0  0
 14 23  1  0  0  0  0
 15 17  2  0  0  0  0
 15 24  1  0  0  0  0
 16 17  1  0  0  0  0
 16 25  1  0  0  0  0
 17 26  1  0  0  0  0
M  END
> <PUBCHEM_COMPOUND_CID>
49830794

> <PUBCHEM_CONFORMER_RMSD>
0.6

> <PUBCHEM_CONFORMER_DIVERSEORDER>
1
2
3

> <PUBCHEM_MMFF94_PARTIAL_CHARGES>
24
1 -0.08
10 -0.05
11 0.16
12 0.16
13 -0.15
14 -0.15
15 -0.15
16 -0.15
17 -0.15
18 0.81
19 0.15
2 -0.65
20 0.15
21 0.15
22 0.15
23 0.15
24 0.15
25 0.15
26 0.15
27 0.5
3 -0.57
4 -0.62
7 0.04
9 -0.15

> <PUBCHEM_EFFECTIVE_ROTOR_COUNT>
2

> <PUBCHEM_PHARMACOPHORE_FEATURES>
7
1 2 acceptor
1 3 acceptor
1 4 acceptor
3 2 3 18 anion
5 1 5 7 9 10 rings
6 4 5 6 7 11 12 rings
6 8 13 14 15 16 17 rings

> <PUBCHEM_HEAVY_ATOM_COUNT>
18

> <PUBCHEM_ATOM_DEF_STEREO_COUNT>
0

> <PUBCHEM_ATOM_UDEF_STEREO_COUNT>
0

> <PUBCHEM_BOND_DEF_STEREO_COUNT>
0

> <PUBCHEM_BOND_UDEF_STEREO_COUNT>
0

> <PUBCHEM_ISOTOPIC_ATOM_COUNT>
0

> <PUBCHEM_COMPONENT_COUNT>
1

> <PUBCHEM_CACTVS_TAUTO_COUNT>
1

> <PUBCHEM_CONFORMER_ID>
02F85B8A00000001

> <PUBCHEM_MMFF94_ENERGY>
48.6547

> <PUBCHEM_FEATURE_SELFOVERLAP>
35.643

> <PUBCHEM_SHAPE_FINGERPRINT>
10319926 262 17980172238336350138
10616163 171 18194403295098872774
10618630 7 18409729560316459646
11578080 2 17459444720642326052
11582403 64 15895521191221932040
116883 192 18413389834831274709
12363563 72 18411138043312326239
12403259 327 15482673528276701375
12553582 1 18409738360768025555
12714826 92 18040716931348786813
13083527 12 18121476193452888424
13140716 1 18412824668548388097
13538477 17 18044095653308493276
14787075 74 18114739456145627408
14790565 3 17979088088973706121
14863182 85 17037265550035784311
15042514 8 18193843643595412673
15422964 175 18342454820484962326
15442244 35 18340209686935137505
15885798 251 18411139143235170315
16752209 62 18045490920436814841
16945 1 18266740168989350309
17804303 29 18342458093138998993
18186145 218 11819278806647035670
19049666 15 17269191658052930220
19591789 44 17332255195336101921
20028762 73 18130224857952859685
20291156 8 18408605872301969707
20510252 161 17911514294821371696
20600515 1 18195510524724903232
20645477 70 18122339349057313943
20871998 22 18412261778450033185
21296965 67 18411417323629067009
21452121 199 18337947991052688896
21634736 98 18260839197905255702
21650355 55 18266447729145658600
21731516 1 18335147496081246616
221490 88 18119254101885843427
2255824 54 17833552679671480677
23184049 29 18410007732489797344
2334 1 18338515369185918665
23366157 5 18115873077671049197
23402539 116 18126833911915257773
23557571 272 18128814149800170552
23559900 14 17982165627015529134
257057 1 18410004463972309745
2748010 2 18339911697276599077
3084891 72 18122899829272521773
3091708 16 9208987676164238249
314173 41 18336833103484405595
335352 9 18410856526208706813
3421961 26 18267586990822255659
54173680 148 18338797788796958608
568465 68 17346310450026627374
5902787 121 18409727365640789000
633830 44 11242237555217473931
7364860 26 18125443265433423872
77492 1 17388552514455857352
7970288 3 18410292518845069579
81228 2 18198341758265008417
8863177 126 17752220632756620531
9709674 26 17911519801164461622

> <PUBCHEM_SHAPE_MULTIPOLES>
357.56
7.02
3.34
0.94
0.78
1.44
0
-6.27
0
-2.3
0
1.01
-0.22
0

> <PUBCHEM_SHAPE_SELFOVERLAP>
785.907

> <PUBCHEM_SHAPE_VOLUME>
194.3

> <PUBCHEM_COORDINATE_TYPE>
2
5
10

$$$$
18516349
  -OEChem-05102415033D

 28 30  0     0  0  0  0  0  0999 V2000
   -3.0054    0.9825    0.0021 S   0  0  0  0  0  0  0  0  0  0  0  0
   -4.5927   -1.5226   -0.0125 O   0  0  0  0  0  0  0  0  0  0  0  0
    0.2435    3.3539   -0.0022 N   0  0  0  0  0  0  0  0  0  0  0  0
   -2.8519   -3.0154    0.0049 N   0  0  0  0  0  0  0  0  0  0  0  0
   -0.4431    0.6406    0.0020 C   0  0  0  0  0  0  0  0  0  0  0  0
    0.9107    1.0279    0.0012 C   0  0  0  0  0  0  0  0  0  0  0  0
   -1.4152    1.6452    0.0007 C   0  0  0  0  0  0  0  0  0  0  0  0
    1.9592    0.0386    0.0001 C   0  0  0  0  0  0  0  0  0  0  0  0
   -1.0441   -0.6627    0.0040 C   0  0  0  0  0  0  0  0  0  0  0  0
   -2.4181   -0.6179    0.0038 C   0  0  0  0  0  0  0  0  0  0  0  0
    1.1811    2.3866   -0.0008 C   0  0  0  0  0  0  0  0  0  0  0  0
   -1.0591    2.9953   -0.0013 C   0  0  0  0  0  0  0  0  0  0  0  0
    2.4690   -0.4387    1.2075 C   0  0  0  0  0  0  0  0  0  0  0  0
    2.4636   -0.4414   -1.2084 C   0  0  0  0  0  0  0  0  0  0  0  0
    3.4835   -1.3961    1.2064 C   0  0  0  0  0  0  0  0  0  0  0  0
    3.4781   -1.3989   -1.2096 C   0  0  0  0  0  0  0  0  0  0  0  0
   -3.3472   -1.7007    0.0042 C   0  0  0  0  0  0  0  0  0  0  0  0
    3.9880   -1.8761   -0.0022 C   0  0  0  0  0  0  0  0  0  0  0  0
   -0.4733   -1.5831    0.0051 H   0  0  0  0  0  0  0  0  0  0  0  0
    2.2031    2.7559   -0.0021 H   0  0  0  0  0  0  0  0  0  0  0  0
   -1.7853    3.7989   -0.0024 H   0  0  0  0  0  0  0  0  0  0  0  0
    2.0868   -0.0755    2.1587 H   0  0  0  0  0  0  0  0  0  0  0  0
    2.0773   -0.0803   -2.1587 H   0  0  0  0  0  0  0  0  0  0  0  0
    3.8805   -1.7680    2.1464 H   0  0  0  0  0  0  0  0  0  0  0  0
    3.8709   -1.7729   -2.1505 H   0  0  0  0  0  0  0  0  0  0  0  0
    4.7778   -2.6217   -0.0031 H   0  0  0  0  0  0  0  0  0  0  0  0
   -1.8621   -3.2358    0.0115 H   0  0  0  0  0  0  0  0  0  0  0  0
   -3.4903   -3.8042   -0.0009 H   0  0  0  0  0  0  0  0  0  0  0  0
  1  7  1  0  0  0  0
  1 10  1  0  0  0  0
  2 17  2  0  0  0  0
  3 11  1  0  0  0  0
  3 12  2  0  0  0  0
  4 17  1  0  0  0  0
  4 27  1  0  0  0  0
  4 28  1  0  0  0  0
  5  6  1  0  0  0  0
  5  7  2  0  0  0  0
  5  9  1  0  0  0  0
  6  8  1  0  0  0  0
  6 11  2  0  0  0  0
  7 12  1  0  0  0  0
  8 13  2  0  0  0  0
  8 14  1  0  0  0  0
  9 10  2  0  0  0  0
  9 19  1  0  0  0  0
 10 17  1  0  0  0  0
 11 20  1  0  0  0  0
 12 21  1  0  0  0  0
 13 15  1  0  0  0  0
 13 22  1  0  0  0  0
 14 16  2  0  0  0  0
 14 23  1  0  0  0  0
 15 18  2  0  0  0  0
 15 24  1  0  0  0  0
 16 18  1  0  0  0  0
 16 25  1  0  0  0  0
 18 26  1  0  0  0  0
M  END
> <PUBCHEM_COMPOUND_CID>
18516349

> <PUBCHEM_CONFORMER_RMSD>
0.6

> <PUBCHEM_CONFORMER_DIVERSEORDER>
1
6
3
2
5
4

> <PUBCHEM_MMFF94_PARTIAL_CHARGES>
25
1 -0.08
10 -0.05
11 0.16
12 0.16
13 -0.15
14 -0.15
15 -0.15
16 -0.15
17 0.71
18 -0.15
19 0.15
2 -0.57
20 0.15
21 0.15
22 0.15
23 0.15
24 0.15
25 0.15
26 0.15
27 0.37
28 0.37
3 -0.62
4 -0.8
7 0.04
9 -0.15

> <PUBCHEM_EFFECTIVE_ROTOR_COUNT>
2

> <PUBCHEM_PHARMACOPHORE_FEATURES>
6
1 2 acceptor
1 3 acceptor
1 4 donor
5 1 5 7 9 10 rings
6 3 5 6 7 11 12 rings
6 8 13 14 15 16 18 rings

> <PUBCHEM_HEAVY_ATOM_COUNT>
18

> <PUBCHEM_ATOM_DEF_STEREO_COUNT>
0

> <PUBCHEM_ATOM_UDEF_STEREO_COUNT>
0

> <PUBCHEM_BOND_DEF_STEREO_COUNT>
0

> <PUBCHEM_BOND_UDEF_STEREO_COUNT>
0

> <PUBCHEM_ISOTOPIC_ATOM_COUNT>
0

> <PUBCHEM_COMPONENT_COUNT>
1

> <PUBCHEM_CACTVS_TAUTO_COUNT>
2

> <PUBCHEM_CONFORMER_ID>
011A897D00000001

> <PUBCHEM_MMFF94_ENERGY>
50.4746

> <PUBCHEM_FEATURE_SELFOVERLAP>
30.512

> <PUBCHEM_SHAPE_FINGERPRINT>
10319926 262 17980172238341624882
10616163 171 18194403295098866278
10618630 7 18409729560311184894
11578080 2 17459444716352646500
11582403 64 15967578785254572216
116883 192 18413108359854583541
12363563 72 18411138043307051487
12403259 327 15410615934238760463
12553582 1 18409738356483614259
12714826 92 18040715831842388357
13083527 12 18121194718470909520
13140716 1 18412824668553662857
13538477 17 18044095649018807228
14787075 74 18114739456145627408
14790565 3 17979086989477889633
14863182 85 17037265550035771327
15042514 8 18193843639295183617
15422964 175 18342454820495511814
15442244 35 18340209682640163705
15885798 251 18411139143235157323
16752209 62 18045490920442089593
16945 1 18194402195191378689
17492 89 18124597745914905159
17804303 29 18342458093117854505
18186145 218 11819278806641760918
19049666 15 17269191658058211484
19591789 44 17331973720359384769
20028762 73 18129943382970926245
20291156 8 18408887347289236355
20510252 161 17911514294831921192
20600515 1 18195227945983795504
20645477 70 18122620824028762855
20871998 22 18412261774155072385
21296965 67 18411416224091078465
21452121 199 18338228366517732808
21634736 98 18260839202189686478
21650355 55 18266729204127624520
21731516 1 18335147496081246616
221490 88 18119254101901654683
2255824 54 17833552679671474181
23184049 29 18410007732484522600
2334 1 18338516464360400617
23366157 5 18115873077676323949
23402539 116 18126833911920539021
23557571 272 18128533774324479672
23559900 14 17982165627015522670
257057 1 18410004463982852753
2748010 2 18339912792498540805
3084891 72 18122899829277796525
3091708 16 9209269155425379689
314173 41 18336834203001301627
335352 9 18410856526203432061
3421961 26 18267586990811693163
54173680 148 18338797788796958608
568465 68 17346310450016071374
5902787 121 18409727365630226504
633830 44 11170181060659512275
7364860 26 18125443265438705120
77492 1 17388552514461132112
7970288 3 18410009944383098483
81228 2 18198342853476394137
8863177 126 17752220632761888779
9709674 26 17911519801164461622

> <PUBCHEM_SHAPE_MULTIPOLES>
358.45
7.04
3.37
0.94
0.7
1.39
0
-6.32
-0.01
-2.27
0
1.01
-0.23
0

> <PUBCHEM_SHAPE_SELFOVERLAP>
786.749

> <PUBCHEM_SHAPE_VOLUME>
195.2

> <PUBCHEM_COORDINATE_TYPE>
2
5
10

$$$$
49830790
  -OEChem-05102415033D

 28 30  0     0  0  0  0  0  0999 V2000
    5.3055   -1.8252   -0.6942 Br  0  0  0  0  0  0  0  0  0  0  0  0
   -3.7307    0.4353    0.0770 S   0  0  0  0  0  0  0  0  0  0  0  0
    1.5386    0.5242    2.0477 F   0  0  0  0  0  0  0  0  0  0  0  0
    3.8501   -0.8646    1.8376 F   0  0  0  0  0  0  0  0  0  0  0  0
   -4.7457   -2.3509    0.1049 O   0  0  0  0  0  0  0  0  0  0  0  0
   -1.0703    3.4472   -0.0963 N   0  0  0  0  0  0  0  0  0  0  0  0
   -2.7320   -3.4367   -0.0518 N   0  0  0  0  0  0  0  0  0  0  0  0
   -1.1623    0.6500   -0.1222 C   0  0  0  0  0  0  0  0  0  0  0  0
    0.0740    1.3181   -0.2112 C   0  0  0  0  0  0  0  0  0  0  0  0
   -2.3227    1.4231   -0.0219 C   0  0  0  0  0  0  0  0  0  0  0  0
    1.3066    0.5780   -0.3184 C   0  0  0  0  0  0  0  0  0  0  0  0
   -1.4705   -0.7516   -0.1151 C   0  0  0  0  0  0  0  0  0  0  0  0
   -2.8183   -1.0021   -0.0124 C   0  0  0  0  0  0  0  0  0  0  0  0
    0.0486    2.7032   -0.1927 C   0  0  0  0  0  0  0  0  0  0  0  0
   -2.2627    2.8180   -0.0100 C   0  0  0  0  0  0  0  0  0  0  0  0
    2.0027    0.2034    0.8309 C   0  0  0  0  0  0  0  0  0  0  0  0
    1.8029    0.2364   -1.5765 C   0  0  0  0  0  0  0  0  0  0  0  0
    3.1945   -0.5129    0.7222 C   0  0  0  0  0  0  0  0  0  0  0  0
    2.9947   -0.4797   -1.6854 C   0  0  0  0  0  0  0  0  0  0  0  0
    3.6906   -0.8544   -0.5360 C   0  0  0  0  0  0  0  0  0  0  0  0
   -3.4936   -2.2587    0.0240 C   0  0  0  0  0  0  0  0  0  0  0  0
   -0.7189   -1.5284   -0.1837 H   0  0  0  0  0  0  0  0  0  0  0  0
    0.9656    3.2829   -0.2579 H   0  0  0  0  0  0  0  0  0  0  0  0
   -3.1409    3.4474    0.0665 H   0  0  0  0  0  0  0  0  0  0  0  0
    1.2729    0.5203   -2.4828 H   0  0  0  0  0  0  0  0  0  0  0  0
    3.3671   -0.7379   -2.6734 H   0  0  0  0  0  0  0  0  0  0  0  0
   -1.7206   -3.4402   -0.1254 H   0  0  0  0  0  0  0  0  0  0  0  0
   -3.1868   -4.3437   -0.0344 H   0  0  0  0  0  0  0  0  0  0  0  0
  1 20  1  0  0  0  0
  2 10  1  0  0  0  0
  2 13  1  0  0  0  0
  3 16  1  0  0  0  0
  4 18  1  0  0  0  0
  5 21  2  0  0  0  0
  6 14  1  0  0  0  0
  6 15  2  0  0  0  0
  7 21  1  0  0  0  0
  7 27  1  0  0  0  0
  7 28  1  0  0  0  0
  8  9  1  0  0  0  0
  8 10  2  0  0  0  0
  8 12  1  0  0  0  0
  9 11  1  0  0  0  0
  9 14  2  0  0  0  0
 10 15  1  0  0  0  0
 11 16  2  0  0  0  0
 11 17  1  0  0  0  0
 12 13  2  0  0  0  0
 12 22  1  0  0  0  0
 13 21  1  0  0  0  0
 14 23  1  0  0  0  0
 15 24  1  0  0  0  0
 16 18  1  0  0  0  0
 17 19  2  0  0  0  0
 17 25  1  0  0  0  0
 18 20  2  0  0  0  0
 19 20  1  0  0  0  0
 19 26  1  0  0  0  0
M  END
> <PUBCHEM_COMPOUND_CID>
49830790

> <PUBCHEM_CONFORMER_RMSD>
0.6

> <PUBCHEM_CONFORMER_DIVERSEORDER>
2
15
11
7
14
9
12
16
5
8
13
4
10
1
6
3

> <PUBCHEM_MMFF94_PARTIAL_CHARGES>
25
1 -0.11
10 0.04
12 -0.15
13 -0.05
14 0.16
15 0.16
16 0.19
17 -0.15
18 0.19
19 -0.15
2 -0.08
20 0.11
21 0.71
22 0.15
23 0.15
24 0.15
25 0.15
26 0.15
27 0.37
28 0.37
3 -0.19
4 -0.19
5 -0.57
6 -0.62
7 -0.8

> <PUBCHEM_EFFECTIVE_ROTOR_COUNT>
2

> <PUBCHEM_PHARMACOPHORE_FEATURES>
7
1 1 hydrophobe
1 5 acceptor
1 6 acceptor
1 7 donor
5 2 8 10 12 13 rings
6 11 16 17 18 19 20 rings
6 6 8 9 10 14 15 rings

> <PUBCHEM_HEAVY_ATOM_COUNT>
21

> <PUBCHEM_ATOM_DEF_STEREO_COUNT>
0

> <PUBCHEM_ATOM_UDEF_STEREO_COUNT>
0

> <PUBCHEM_BOND_DEF_STEREO_COUNT>
0

> <PUBCHEM_BOND_UDEF_STEREO_COUNT>
0

> <PUBCHEM_ISOTOPIC_ATOM_COUNT>
0

> <PUBCHEM_COMPONENT_COUNT>
1

> <PUBCHEM_CACTVS_TAUTO_COUNT>
2

> <PUBCHEM_CONFORMER_ID>
02F85B8600000002

> <PUBCHEM_MMFF94_ENERGY>
51.7298

> <PUBCHEM_FEATURE_SELFOVERLAP>
35.585

> <PUBCHEM_SHAPE_FINGERPRINT>
10366900 7 17916575428395148908
10616163 171 18338239250023143166
11582403 64 15969543680831164600
11796584 16 18053106121434825614
12236239 1 17532385170761205748
12363563 72 18339081600568213847
12500047 106 18122906417636231444
12553582 1 18337117864295571091
12714826 92 18059586741214452388
12788726 201 18261967300819169323
13140716 1 18341053003700572521
14787075 74 17971190572197842132
14863182 85 16605484078397051135
15042514 8 18338244769403862221
15885798 251 18339083799934224155
16752209 62 18188760644559155837
16945 1 18338519612481972301
17804303 29 18343023272301753153
18186145 218 12035725384088065668
19049666 15 17486213310098191340
19784866 135 18411423877622742155
20291156 8 18335422421560008167
20600515 1 18339063922362030385
20645477 70 17834111227921740183
20871998 22 18268431411504977349
20905425 154 18269843003740960823
21452121 199 18265893742683547373
21634736 98 18113626711196227972
22112679 90 17822574880897062940
23184049 29 18337668719505003389
23366157 5 17899701447041082509
23557571 272 18129664089104593068
23559900 14 18341612552176889644
23598288 3 17970653834081733893
3004659 81 18113336435641890295
314173 41 18192437596004784615
463206 1 18189051052694030307
5104073 3 18201435836242148210
568465 68 17346883321217157822
5902787 121 18337954592427816541
602551 16 18340205177076921906
7364860 26 17837215140245547365
77492 1 17532101501040414980
7970288 3 18337957903885499423
81228 2 18342459197362741089
9709674 26 18127699218823239982

> <PUBCHEM_SHAPE_MULTIPOLES>
411.58
8.75
3.33
1.22
5.52
0.06
-0.28
6.99
0.26
-4.47
0.16
1.58
0.01
0.25

> <PUBCHEM_SHAPE_SELFOVERLAP>
892.313

> <PUBCHEM_SHAPE_VOLUME>
229.2

> <PUBCHEM_COORDINATE_TYPE>
2
5
10

$$$$
49830795
  -OEChem-05102415033D

 37 39  0     0  0  0  0  0  0999 V2000
    4.6539   -0.1053   -0.0009 S   0  0  0  0  0  0  0  0  0  0  0  0
   -4.5535   -0.2899    0.0019 S   0  0  0  0  0  0  0  0  0  0  0  0
    5.2602    0.2993   -1.2619 O   0  0  0  0  0  0  0  0  0  0  0  0
    5.2447    0.3286    1.2571 O   0  0  0  0  0  0  0  0  0  0  0  0
   -4.8187   -3.2435   -0.0111 O   0  0  0  0  0  0  0  0  0  0  0  0
   -2.7497    3.3053   -0.0044 N   0  0  0  0  0  0  0  0  0  0  0  0
   -2.5880   -3.7747    0.0054 N   0  0  0  0  0  0  0  0  0  0  0  0
    2.9754    0.3757   -0.0003 C   0  0  0  0  0  0  0  0  0  0  0  0
    0.2936    1.1442    0.0002 C   0  0  0  0  0  0  0  0  0  0  0  0
   -1.0921    1.5422    0.0003 C   0  0  0  0  0  0  0  0  0  0  0  0
   -2.1186    0.5785    0.0014 C   0  0  0  0  0  0  0  0  0  0  0  0
    4.6044   -1.8832    0.0028 C   0  0  0  0  0  0  0  0  0  0  0  0
    2.3059    0.5704    1.2079 C   0  0  0  0  0  0  0  0  0  0  0  0
    2.3041    0.5653   -1.2082 C   0  0  0  0  0  0  0  0  0  0  0  0
    0.9650    0.9546    1.2080 C   0  0  0  0  0  0  0  0  0  0  0  0
    0.9632    0.9494   -1.2079 C   0  0  0  0  0  0  0  0  0  0  0  0
   -3.4427    1.0270   -0.0002 C   0  0  0  0  0  0  0  0  0  0  0  0
   -2.0566   -0.8553    0.0037 C   0  0  0  0  0  0  0  0  0  0  0  0
   -1.4734    2.8743   -0.0025 C   0  0  0  0  0  0  0  0  0  0  0  0
   -3.2989   -1.4442    0.0042 C   0  0  0  0  0  0  0  0  0  0  0  0
    5.9955   -2.4767    0.0027 C   0  0  0  0  0  0  0  0  0  0  0  0
   -3.7437    2.3904   -0.0030 C   0  0  0  0  0  0  0  0  0  0  0  0
   -3.6299   -2.8324    0.0049 C   0  0  0  0  0  0  0  0  0  0  0  0
    4.0545   -2.2033   -0.8873 H   0  0  0  0  0  0  0  0  0  0  0  0
    4.0563   -2.1990    0.8955 H   0  0  0  0  0  0  0  0  0  0  0  0
    2.8067    0.4214    2.1603 H   0  0  0  0  0  0  0  0  0  0  0  0
    2.8044    0.4128   -2.1603 H   0  0  0  0  0  0  0  0  0  0  0  0
    0.4574    1.1004    2.1587 H   0  0  0  0  0  0  0  0  0  0  0  0
    0.4541    1.0914   -2.1584 H   0  0  0  0  0  0  0  0  0  0  0  0
   -1.1279   -1.4126    0.0048 H   0  0  0  0  0  0  0  0  0  0  0  0
   -0.7336    3.6704   -0.0039 H   0  0  0  0  0  0  0  0  0  0  0  0
    6.5584   -2.1679   -0.8839 H   0  0  0  0  0  0  0  0  0  0  0  0
    6.5615   -2.1593    0.8844 H   0  0  0  0  0  0  0  0  0  0  0  0
    5.9426   -3.5697    0.0079 H   0  0  0  0  0  0  0  0  0  0  0  0
   -4.7572    2.7726   -0.0043 H   0  0  0  0  0  0  0  0  0  0  0  0
   -2.7947   -4.7681   -0.0002 H   0  0  0  0  0  0  0  0  0  0  0  0
   -1.6070   -3.5177    0.0113 H   0  0  0  0  0  0  0  0  0  0  0  0
  1  3  2  0  0  0  0
  1  4  2  0  0  0  0
  1  8  1  0  0  0  0
  1 12  1  0  0  0  0
  2 17  1  0  0  0  0
  2 20  1  0  0  0  0
  5 23  2  0  0  0  0
  6 19  1  0  0  0  0
  6 22  2  0  0  0  0
  7 23  1  0  0  0  0
  7 36  1  0  0  0  0
  7 37  1  0  0  0  0
  8 13  2  0  0  0  0
  8 14  1  0  0  0  0
  9 10  1  0  0  0  0
  9 15  2  0  0  0  0
  9 16  1  0  0  0  0
 10 11  1  0  0  0  0
 10 19  2  0  0  0  0
 11 17  2  0  0  0  0
 11 18  1  0  0  0  0
 12 21  1  0  0  0  0
 12 24  1  0  0  0  0
 12 25  1  0  0  0  0
 13 15  1  0  0  0  0
 13 26  1  0  0  0  0
 14 16  2  0  0  0  0
 14 27  1  0  0  0  0
 15 28  1  0  0  0  0
 16 29  1  0  0  0  0
 17 22  1  0  0  0  0
 18 20  2  0  0  0  0
 18 30  1  0  0  0  0
 19 31  1  0  0  0  0
 20 23  1  0  0  0  0
 21 32  1  0  0  0  0
 21 33  1  0  0  0  0
 21 34  1  0  0  0  0
 22 35  1  0  0  0  0
M  END
> <PUBCHEM_COMPOUND_CID>
49830795

> <PUBCHEM_CONFORMER_RMSD>
0.6

> <PUBCHEM_CONFORMER_DIVERSEORDER>
1
27
23
12
7
26
21
3
22
25
2
11
16
20
10
5
24
28
4
6
13
8
17
9
15
14
18
19

> <PUBCHEM_MMFF94_PARTIAL_CHARGES>
28
1 1.2
12 0.11
13 -0.15
14 -0.15
15 -0.15
16 -0.15
17 0.04
18 -0.15
19 0.16
2 -0.08
20 -0.05
22 0.16
23 0.71
26 0.15
27 0.15
28 0.15
29 0.15
3 -0.65
30 0.15
31 0.15
35 0.15
36 0.37
37 0.37
4 -0.65
5 -0.57
6 -0.62
7 -0.8
8 -0.01

> <PUBCHEM_EFFECTIVE_ROTOR_COUNT>
4

> <PUBCHEM_PHARMACOPHORE_FEATURES>
8
1 3 acceptor
1 4 acceptor
1 5 acceptor
1 6 acceptor
1 7 donor
5 2 11 17 18 20 rings
6 6 10 11 17 19 22 rings
6 8 9 13 14 15 16 rings

> <PUBCHEM_HEAVY_ATOM_COUNT>
23

> <PUBCHEM_ATOM_DEF_STEREO_COUNT>
0

> <PUBCHEM_ATOM_UDEF_STEREO_COUNT>
0

> <PUBCHEM_BOND_DEF_STEREO_COUNT>
0

> <PUBCHEM_BOND_UDEF_STEREO_COUNT>
0

> <PUBCHEM_ISOTOPIC_ATOM_COUNT>
0

> <PUBCHEM_COMPONENT_COUNT>
1

> <PUBCHEM_CACTVS_TAUTO_COUNT>
2

> <PUBCHEM_CONFORMER_ID>
02F85B8B00000001

> <PUBCHEM_MMFF94_ENERGY>
49.6289

> <PUBCHEM_FEATURE_SELFOVERLAP>
40.68

> <PUBCHEM_SHAPE_FINGERPRINT>
10595046 47 18334864948159628420
10616163 171 18410857654920097951
11056379 131 18411428288601770988
11186622 123 18334849494509010706
11796584 16 18268995285240351278
12236239 1 17676774188592916517
12363563 72 18194687196937346815
12523318 42 18341038671051457480
12553582 1 18192716872227096291
12633257 1 16199594730580486951
12643181 29 18194117413913088286
12990986 174 18338797943611083515
13140716 1 18270403922892009345
13167823 11 18261395503655091744
13583140 156 17917134053670099896
13631057 29 18339645641654019406
14251751 18 18412824668980982594
14251764 30 17971487444738175131
14420673 8 18124317108514618758
14844126 61 18409728478348847787
14866123 147 18412549799985583811
15042514 8 18410015446984147649
15230672 131 17832146022591258902
15250474 111 18261385595203100122
15352361 1 18338797939347829695
15927050 60 18197212543571724183
17492 89 18409450327639764118
17844677 252 18341616993083831624
1813 80 17095810915078176868
19141452 34 18263364698557231372
19958102 18 18262225613248132847
21065198 57 18412542081407334096
21065201 7 18340195319984722112
23503958 8 18410291410858330546
23557571 272 18201727236266397765
23559900 14 18340477937085577792
3004659 81 18041838540145561359
335352 9 18410574024966661141
4073 2 18340484474858589666
4214541 1 18338516322769041060
44062 13 18340770343038496958
463206 1 18046907362033883715
5104073 3 18202562861266944120
559249 180 18189053092591375011
56633871 153 18124604326037002443
5924683 9 18411416206805564799
59755656 215 18410851032702981023
59755656 520 18196650701567345565
602551 16 18411980265098107328
633830 44 16805901593361200268
6437827 68 18268148665244684678
67856867 119 18188775084271386572
7970288 3 18122625221864868327
9709674 26 18271530792743555598

> <PUBCHEM_SHAPE_MULTIPOLES>
453.46
12.31
3.73
0.97
13.49
2.55
0
7.45
0.01
-5.2
0
0.97
-0.26
0.01

> <PUBCHEM_SHAPE_SELFOVERLAP>
967.027

> <PUBCHEM_SHAPE_VOLUME>
253.8

> <PUBCHEM_COORDINATE_TYPE>
2
5
10

$$$$
49830792
  -OEChem-05102415033D

 34 36  0     0  0  0  0  0  0999 V2000
    4.5737    0.0098    0.2784 S   0  0  0  0  0  0  0  0  0  0  0  0
   -2.2462   -3.5858    0.0149 F   0  0  0  0  0  0  0  0  0  0  0  0
   -4.2012   -2.6626    0.2463 F   0  0  0  0  0  0  0  0  0  0  0  0
   -3.2441   -2.6956   -1.6996 F   0  0  0  0  0  0  0  0  0  0  0  0
   -2.2589    3.5812   -0.1144 F   0  0  0  0  0  0  0  0  0  0  0  0
   -3.2542    2.6261   -1.7952 F   0  0  0  0  0  0  0  0  0  0  0  0
   -4.2107    2.6602    0.1510 F   0  0  0  0  0  0  0  0  0  0  0  0
    5.3548   -0.0601   -2.5813 O   0  0  0  0  0  0  0  0  0  0  0  0
    2.1651    0.0672    3.4995 N   0  0  0  0  0  0  0  0  0  0  0  0
    3.2524   -0.0630   -3.4972 N   0  0  0  0  0  0  0  0  0  0  0  0
    0.8438    0.0306    1.4724 C   0  0  0  0  0  0  0  0  0  0  0  0
   -0.4503    0.0170    0.8369 C   0  0  0  0  0  0  0  0  0  0  0  0
    2.0239    0.0168    0.7046 C   0  0  0  0  0  0  0  0  0  0  0  0
   -1.0785    1.2182    0.5077 C   0  0  0  0  0  0  0  0  0  0  0  0
   -1.0737   -1.1975    0.5506 C   0  0  0  0  0  0  0  0  0  0  0  0
    3.2483    0.0294    1.3791 C   0  0  0  0  0  0  0  0  0  0  0  0
   -2.3303    1.2047   -0.1075 C   0  0  0  0  0  0  0  0  0  0  0  0
   -2.3255   -1.2109   -0.0646 C   0  0  0  0  0  0  0  0  0  0  0  0
    2.2154   -0.0093   -0.7175 C   0  0  0  0  0  0  0  0  0  0  0  0
   -2.9538   -0.0098   -0.3936 C   0  0  0  0  0  0  0  0  0  0  0  0
    0.9846    0.0554    2.8506 C   0  0  0  0  0  0  0  0  0  0  0  0
    3.5419   -0.0155   -1.0784 C   0  0  0  0  0  0  0  0  0  0  0  0
    3.3047    0.0546    2.7740 C   0  0  0  0  0  0  0  0  0  0  0  0
   -2.9921   -2.5096   -0.3702 C   0  0  0  0  0  0  0  0  0  0  0  0
   -3.0011    2.4892   -0.4600 C   0  0  0  0  0  0  0  0  0  0  0  0
    4.1120   -0.0407   -2.3864 C   0  0  0  0  0  0  0  0  0  0  0  0
   -0.5885    2.1632    0.7321 H   0  0  0  0  0  0  0  0  0  0  0  0
   -0.5803   -2.1320    0.8086 H   0  0  0  0  0  0  0  0  0  0  0  0
    1.3993   -0.0229   -1.4294 H   0  0  0  0  0  0  0  0  0  0  0  0
   -3.9296   -0.0202   -0.8734 H   0  0  0  0  0  0  0  0  0  0  0  0
    0.1162    0.0667    3.5039 H   0  0  0  0  0  0  0  0  0  0  0  0
    4.2350    0.0649    3.3285 H   0  0  0  0  0  0  0  0  0  0  0  0
    2.2414   -0.0558   -3.4171 H   0  0  0  0  0  0  0  0  0  0  0  0
    3.6308   -0.0873   -4.4384 H   0  0  0  0  0  0  0  0  0  0  0  0
  1 16  1  0  0  0  0
  1 22  1  0  0  0  0
  2 24  1  0  0  0  0
  3 24  1  0  0  0  0
  4 24  1  0  0  0  0
  5 25  1  0  0  0  0
  6 25  1  0  0  0  0
  7 25  1  0  0  0  0
  8 26  2  0  0  0  0
  9 21  1  0  0  0  0
  9 23  2  0  0  0  0
 10 26  1  0  0  0  0
 10 33  1  0  0  0  0
 10 34  1  0  0  0  0
 11 12  1  0  0  0  0
 11 13  1  0  0  0  0
 11 21  2  0  0  0  0
 12 14  2  0  0  0  0
 12 15  1  0  0  0  0
 13 16  2  0  0  0  0
 13 19  1  0  0  0  0
 14 17  1  0  0  0  0
 14 27  1  0  0  0  0
 15 18  2  0  0  0  0
 15 28  1  0  0  0  0
 16 23  1  0  0  0  0
 17 20  2  0  0  0  0
 17 25  1  0  0  0  0
 18 20  1  0  0  0  0
 18 24  1  0  0  0  0
 19 22  2  0  0  0  0
 19 29  1  0  0  0  0
 20 30  1  0  0  0  0
 21 31  1  0  0  0  0
 22 26  1  0  0  0  0
 23 32  1  0  0  0  0
M  END
> <PUBCHEM_COMPOUND_CID>
49830792

> <PUBCHEM_CONFORMER_RMSD>
0.8

> <PUBCHEM_CONFORMER_DIVERSEORDER>
1
2
3
4
5

> <PUBCHEM_MMFF94_PARTIAL_CHARGES>
31
1 -0.08
10 -0.8
14 -0.15
15 -0.15
16 0.04
17 -0.14
18 -0.14
19 -0.15
2 -0.34
20 -0.15
21 0.16
22 -0.05
23 0.16
24 1.16
25 1.16
26 0.71
27 0.15
28 0.15
29 0.15
3 -0.34
30 0.15
31 0.15
32 0.15
33 0.37
34 0.37
4 -0.34
5 -0.34
6 -0.34
7 -0.34
8 -0.57
9 -0.62

> <PUBCHEM_EFFECTIVE_ROTOR_COUNT>
4

> <PUBCHEM_PHARMACOPHORE_FEATURES>
6
1 10 donor
1 8 acceptor
1 9 acceptor
5 1 13 16 19 22 rings
6 12 14 15 17 18 20 rings
6 9 11 13 16 21 23 rings

> <PUBCHEM_HEAVY_ATOM_COUNT>
26

> <PUBCHEM_ATOM_DEF_STEREO_COUNT>
0

> <PUBCHEM_ATOM_UDEF_STEREO_COUNT>
0

> <PUBCHEM_BOND_DEF_STEREO_COUNT>
0

> <PUBCHEM_BOND_UDEF_STEREO_COUNT>
0

> <PUBCHEM_ISOTOPIC_ATOM_COUNT>
0

> <PUBCHEM_COMPONENT_COUNT>
1

> <PUBCHEM_CACTVS_TAUTO_COUNT>
2

> <PUBCHEM_CONFORMER_ID>
02F85B8800000001

> <PUBCHEM_MMFF94_ENERGY>
56.5445

> <PUBCHEM_FEATURE_SELFOVERLAP>
30.512

> <PUBCHEM_SHAPE_FINGERPRINT>
10165383 225 17984729752176191449
10764073 3 15981773647893730859
10794284 68 17609258750841922697
11049842 53 18192141603933372162
11578080 2 17846222197507957280
11640471 11 17676488281178041552
11796584 16 18271521976036176338
12160290 23 18338499886355980177
12236239 1 17604136060820159456
12293681 25 17203605944011864234
12553582 1 18191855937300630763
12623949 98 16770143494692575431
12714826 92 18130801082563775566
12788726 201 18041283257262768483
13009979 54 17678150772876498498
13583140 156 17772723105482499674
14022347 108 18120649386647760635
15475509 8 18271250525634246119
15842332 3 17603856789225059634
16752209 62 18263342798708958363
17980427 23 17677034807877941968
1813 80 18124310769116269131
18915476 22 16486394607802545040
20645477 70 16486960800609157800
20693207 138 17775012327119309766
21033650 10 18336841822657971776
21285901 2 17700674414806378671
21756936 100 17241633704846941116
21864079 5 16588590803442684004
22122407 14 16154832306792082357
22182313 1 17703500077863474194
22393880 68 18341063938929882238
22620623 9 18342744030818793383
23557571 272 18202273736394601993
23559900 14 18201427031648894514
23598291 2 17531239539668947770
238 59 16414892194196078572
25147074 1 17603578612888662296
312423 11 17603579725100790170
312425 83 18190486916637957550
340366 18 17899695661508975470
38570 142 16807887272716678212
46194498 28 17988081235384825456
474 4 16370731409368195328
484985 159 16985786076094588174
57527295 17 17058370267244827941
58260988 647 16343423917332482045
59025328 239 14547587125736468752
6049 1 17703505588121853400
621550 5 17844546589063119051
7615 1 17604131680037997856
81228 2 18268409387360836435
9658208 31 18130219347151252689

> <PUBCHEM_SHAPE_MULTIPOLES>
479.44
9.2
3.02
2.87
3.23
0.08
-0.05
-4.83
-0.12
5.28
0.04
-6.98
-0.91
0.27

> <PUBCHEM_SHAPE_SELFOVERLAP>
1055.155

> <PUBCHEM_SHAPE_VOLUME>
263.2

> <PUBCHEM_COORDINATE_TYPE>
2
5
10

$$$$
49830796
  -OEChem-05102415033D

 30 32  0     0  0  0  0  0  0999 V2000
   -2.9058    1.5402   -0.1867 S   0  0  0  0  0  0  0  0  0  0  0  0
    3.9272   -2.0506   -1.8501 F   0  0  0  0  0  0  0  0  0  0  0  0
   -2.9870   -2.3730    0.0970 O   0  0  0  0  0  0  0  0  0  0  0  0
   -4.7211   -0.8760   -0.1279 O   0  0  0  0  0  0  0  0  0  0  0  0
    0.5391    3.6155   -0.1146 N   0  0  0  0  0  0  0  0  0  0  0  0
   -0.3910    0.9792    0.0217 C   0  0  0  0  0  0  0  0  0  0  0  0
    0.9895    1.2470    0.0932 C   0  0  0  0  0  0  0  0  0  0  0  0
   -1.2651    2.0613   -0.1172 C   0  0  0  0  0  0  0  0  0  0  0  0
    1.9427    0.1746    0.2350 C   0  0  0  0  0  0  0  0  0  0  0  0
   -1.1071   -0.2637    0.0672 C   0  0  0  0  0  0  0  0  0  0  0  0
   -2.4682   -0.1006   -0.0353 C   0  0  0  0  0  0  0  0  0  0  0  0
    1.3824    2.5736    0.0197 C   0  0  0  0  0  0  0  0  0  0  0  0
   -0.7879    3.3716   -0.1839 C   0  0  0  0  0  0  0  0  0  0  0  0
    2.4837   -0.4320   -0.8986 C   0  0  0  0  0  0  0  0  0  0  0  0
    2.3262   -0.2545    1.5058 C   0  0  0  0  0  0  0  0  0  0  0  0
    3.4080   -1.4676   -0.7618 C   0  0  0  0  0  0  0  0  0  0  0  0
    3.2503   -1.2904    1.6427 C   0  0  0  0  0  0  0  0  0  0  0  0
   -3.4906   -1.0961   -0.0300 C   0  0  0  0  0  0  0  0  0  0  0  0
    3.7914   -1.8968    0.5089 C   0  0  0  0  0  0  0  0  0  0  0  0
   -3.9167   -3.4615    0.1149 C   0  0  0  0  0  0  0  0  0  0  0  0
   -0.6310   -1.2316    0.1708 H   0  0  0  0  0  0  0  0  0  0  0  0
    2.4317    2.8523    0.0679 H   0  0  0  0  0  0  0  0  0  0  0  0
   -1.4361    4.2327   -0.2914 H   0  0  0  0  0  0  0  0  0  0  0  0
    2.1960   -0.1100   -1.8966 H   0  0  0  0  0  0  0  0  0  0  0  0
    1.9144    0.2074    2.4000 H   0  0  0  0  0  0  0  0  0  0  0  0
    3.5488   -1.6248    2.6319 H   0  0  0  0  0  0  0  0  0  0  0  0
    4.5109   -2.7032    0.6152 H   0  0  0  0  0  0  0  0  0  0  0  0
   -4.5958   -3.3614    0.9666 H   0  0  0  0  0  0  0  0  0  0  0  0
   -4.4768   -3.4925   -0.8241 H   0  0  0  0  0  0  0  0  0  0  0  0
   -3.3516   -4.3912    0.2205 H   0  0  0  0  0  0  0  0  0  0  0  0
  1  8  1  0  0  0  0
  1 11  1  0  0  0  0
  2 16  1  0  0  0  0
  3 18  1  0  0  0  0
  3 20  1  0  0  0  0
  4 18  2  0  0  0  0
  5 12  1  0  0  0  0
  5 13  2  0  0  0  0
  6  7  1  0  0  0  0
  6  8  2  0  0  0  0
  6 10  1  0  0  0  0
  7  9  1  0  0  0  0
  7 12  2  0  0  0  0
  8 13  1  0  0  0  0
  9 14  2  0  0  0  0
  9 15  1  0  0  0  0
 10 11  2  0  0  0  0
 10 21  1  0  0  0  0
 11 18  1  0  0  0  0
 12 22  1  0  0  0  0
 13 23  1  0  0  0  0
 14 16  1  0  0  0  0
 14 24  1  0  0  0  0
 15 17  2  0  0  0  0
 15 25  1  0  0  0  0
 16 19  2  0  0  0  0
 17 19  1  0  0  0  0
 17 26  1  0  0  0  0
 19 27  1  0  0  0  0
 20 28  1  0  0  0  0
 20 29  1  0  0  0  0
 20 30  1  0  0  0  0
M  END
> <PUBCHEM_COMPOUND_CID>
49830796

> <PUBCHEM_CONFORMER_RMSD>
0.6

> <PUBCHEM_CONFORMER_DIVERSEORDER>
1
19
15
20
14
6
17
7
13
8
16
5
11
10
9
18
12
4
2
3

> <PUBCHEM_MMFF94_PARTIAL_CHARGES>
24
1 -0.08
10 -0.15
11 -0.05
12 0.16
13 0.16
14 -0.15
15 -0.15
16 0.19
17 -0.15
18 0.81
19 -0.15
2 -0.19
20 0.28
21 0.15
22 0.15
23 0.15
24 0.15
25 0.15
26 0.15
27 0.15
3 -0.43
4 -0.57
5 -0.62
8 0.04

> <PUBCHEM_EFFECTIVE_ROTOR_COUNT>
3

> <PUBCHEM_PHARMACOPHORE_FEATURES>
5
1 4 acceptor
1 5 acceptor
5 1 6 8 10 11 rings
6 5 6 7 8 12 13 rings
6 9 14 15 16 17 19 rings

> <PUBCHEM_HEAVY_ATOM_COUNT>
20

> <PUBCHEM_ATOM_DEF_STEREO_COUNT>
0

> <PUBCHEM_ATOM_UDEF_STEREO_COUNT>
0

> <PUBCHEM_BOND_DEF_STEREO_COUNT>
0

> <PUBCHEM_BOND_UDEF_STEREO_COUNT>
0

> <PUBCHEM_ISOTOPIC_ATOM_COUNT>
0

> <PUBCHEM_COMPONENT_COUNT>
1

> <PUBCHEM_CACTVS_TAUTO_COUNT>
1

> <PUBCHEM_CONFORMER_ID>
02F85B8C00000001

> <PUBCHEM_MMFF94_ENERGY>
52.288

> <PUBCHEM_FEATURE_SELFOVERLAP>
25.436

> <PUBCHEM_SHAPE_FINGERPRINT>
11582403 64 15678496296181385792
116883 192 18412260623441473181
12107183 9 18340783593803903163
12363563 72 18410009931497209135
12403259 327 15626221368336644615
12553582 1 18336550434517063547
12596599 1 18341901804907103891
12714826 92 17968375646115309685
12788726 201 18189061901611549418
12839892 36 17619045666137131529
12990986 174 18408880711707552762
13083527 12 18046038700660744632
13140716 1 18411975845577071777
13533116 47 18054791956407337179
13583140 156 14476089243019097995
14251757 5 18263373498892213727
14787075 74 18040989700796066952
14790565 3 17690851064165101937
14863182 85 17397269811823488925
15003188 105 17753877617415894491
15042514 8 18121218684383139825
15342816 4 18333728014038625450
15422964 175 18342168951730100110
15885798 251 18410291402584933161
16752209 62 17901093132013321361
16945 1 18121493557715814368
17492 89 18195529427187338787
18186145 218 11531052811367162572
19591789 44 17331687843078229441
20028762 73 18128811955431039949
20291156 8 18408322202760436203
20600515 1 18267568152784874968
20645477 70 18121492729404103463
20871998 22 18411696608014532520
21197605 99 16461371097603070315
21452121 199 18337100267508584896
21634736 98 18259993660510028724
221490 88 18191028009096763147
2255824 54 17760648466070162477
23184049 29 18409159996113649384
23366157 5 18114744957239844717
23379529 103 18270977738843937382
23557571 272 18270672066084141232
23559900 14 18413103978671456381
238078 22 18338809918185366948
2748010 2 18339345418607608685
3084891 72 17977372846797215149
314173 41 18408888472755472595
33824 294 17688306107289325609
3421961 26 18267021841861253643
5902787 121 18408598154251013608
602551 16 18123744258587214098
7364860 26 18196090173183967529
77492 1 17171815648554365392
81228 2 18197772198383448257

> <PUBCHEM_SHAPE_MULTIPOLES>
391.45
7.68
4.05
1.07
1.58
1.26
0
-8.2
0.41
2.32
0.22
-1.48
-0.53
0.41

> <PUBCHEM_SHAPE_SELFOVERLAP>
854.597

> <PUBCHEM_SHAPE_VOLUME>
215.8

> <PUBCHEM_COORDINATE_TYPE>
2
5
10

$$$$
