18451197
  -OEChem-05102415013D

 49 53  0     0  0  0  0  0  0999 V2000
   -4.4763    1.9534    0.1393 S   0  0  0  0  0  0  0  0  0  0  0  0
    7.9494   -0.3352    2.0024 F   0  0  0  0  0  0  0  0  0  0  0  0
   -9.1026    0.2668    0.1497 O   0  0  0  0  0  0  0  0  0  0  0  0
    4.1338    0.3310   -1.2476 O   0  0  0  0  0  0  0  0  0  0  0  0
   -4.1287   -2.4981   -0.2147 N   0  0  0  0  0  0  0  0  0  0  0  0
   -1.7939   -2.2965    0.0946 N   0  0  0  0  0  0  0  0  0  0  0  0
    3.3295    0.1800    0.9478 N   0  0  0  0  0  0  0  0  0  0  0  0
    5.5991    0.0208    0.5484 N   0  0  0  0  0  0  0  0  0  0  0  0
   -3.2100   -0.3000    0.0956 C   0  0  0  0  0  0  0  0  0  0  0  0
   -2.2341    0.7302    0.3088 C   0  0  0  0  0  0  0  0  0  0  0  0
   -4.4956    0.2369   -0.0162 C   0  0  0  0  0  0  0  0  0  0  0  0
   -5.6102   -0.5832   -0.2280 C   0  0  0  0  0  0  0  0  0  0  0  0
   -0.8082    0.5888    0.4736 C   0  0  0  0  0  0  0  0  0  0  0  0
   -3.0628   -1.6921   -0.0101 C   0  0  0  0  0  0  0  0  0  0  0  0
   -2.7854    1.9888    0.3525 C   0  0  0  0  0  0  0  0  0  0  0  0
   -6.9336   -0.0516   -0.3462 C   0  0  0  0  0  0  0  0  0  0  0  0
   -5.3505   -1.9395   -0.3167 C   0  0  0  0  0  0  0  0  0  0  0  0
    0.0288    0.6277   -0.6417 C   0  0  0  0  0  0  0  0  0  0  0  0
   -0.2659    0.4139    1.7467 C   0  0  0  0  0  0  0  0  0  0  0  0
    1.9502    0.3171    0.7896 C   0  0  0  0  0  0  0  0  0  0  0  0
    1.4079    0.4919   -0.4836 C   0  0  0  0  0  0  0  0  0  0  0  0
    1.1131    0.2780    1.9048 C   0  0  0  0  0  0  0  0  0  0  0  0
   -7.4726    0.8698   -1.2756 C   0  0  0  0  0  0  0  0  0  0  0  0
   -7.9647   -0.3883    0.4998 C   0  0  0  0  0  0  0  0  0  0  0  0
   -8.7947    1.0302   -0.9315 C   0  0  0  0  0  0  0  0  0  0  0  0
    4.3386    0.1917   -0.0460 C   0  0  0  0  0  0  0  0  0  0  0  0
    6.8625   -0.0259   -0.0869 C   0  0  0  0  0  0  0  0  0  0  0  0
    8.0203   -0.2056    0.6699 C   0  0  0  0  0  0  0  0  0  0  0  0
    6.9487    0.1075   -1.4727 C   0  0  0  0  0  0  0  0  0  0  0  0
    9.2645   -0.2517    0.0409 C   0  0  0  0  0  0  0  0  0  0  0  0
    8.1929    0.0614   -2.1016 C   0  0  0  0  0  0  0  0  0  0  0  0
    9.3508   -0.1182   -1.3450 C   0  0  0  0  0  0  0  0  0  0  0  0
   -2.2834    2.9359    0.4992 H   0  0  0  0  0  0  0  0  0  0  0  0
   -6.1506   -2.6561   -0.4841 H   0  0  0  0  0  0  0  0  0  0  0  0
   -0.3793    0.7621   -1.6409 H   0  0  0  0  0  0  0  0  0  0  0  0
   -0.9046    0.3800    2.6263 H   0  0  0  0  0  0  0  0  0  0  0  0
    1.9868    0.5323   -1.3951 H   0  0  0  0  0  0  0  0  0  0  0  0
    1.5220    0.1416    2.9028 H   0  0  0  0  0  0  0  0  0  0  0  0
   -6.9695    1.3561   -2.0995 H   0  0  0  0  0  0  0  0  0  0  0  0
   -8.0530   -1.0425    1.3559 H   0  0  0  0  0  0  0  0  0  0  0  0
   -1.7431   -3.3036    0.0108 H   0  0  0  0  0  0  0  0  0  0  0  0
   -0.9454   -1.7787    0.2456 H   0  0  0  0  0  0  0  0  0  0  0  0
    3.6494    0.0555    1.9051 H   0  0  0  0  0  0  0  0  0  0  0  0
   -9.6061    1.6182   -1.3348 H   0  0  0  0  0  0  0  0  0  0  0  0
    5.6189   -0.0837    1.5598 H   0  0  0  0  0  0  0  0  0  0  0  0
    6.1019    0.2496   -2.1284 H   0  0  0  0  0  0  0  0  0  0  0  0
   10.1658   -0.3916    0.6303 H   0  0  0  0  0  0  0  0  0  0  0  0
    8.2616    0.1653   -3.1807 H   0  0  0  0  0  0  0  0  0  0  0  0
   10.3195   -0.1541   -1.8347 H   0  0  0  0  0  0  0  0  0  0  0  0
  1 11  1  0  0  0  0
  1 15  1  0  0  0  0
  2 28  1  0  0  0  0
  3 24  1  0  0  0  0
  3 25  1  0  0  0  0
  4 26  2  0  0  0  0
  5 14  2  0  0  0  0
  5 17  1  0  0  0  0
  6 14  1  0  0  0  0
  6 41  1  0  0  0  0
  6 42  1  0  0  0  0
  7 20  1  0  0  0  0
  7 26  1  0  0  0  0
  7 43  1  0  0  0  0
  8 26  1  0  0  0  0
  8 27  1  0  0  0  0
  8 45  1  0  0  0  0
  9 10  1  0  0  0  0
  9 11  2  0  0  0  0
  9 14  1  0  0  0  0
 10 13  1  0  0  0  0
 10 15  2  0  0  0  0
 11 12  1  0  0  0  0
 12 16  1  0  0  0  0
 12 17  2  0  0  0  0
 13 18  2  0  0  0  0
 13 19  1  0  0  0  0
 15 33  1  0  0  0  0
 16 23  1  0  0  0  0
 16 24  2  0  0  0  0
 17 34  1  0  0  0  0
 18 21  1  0  0  0  0
 18 35  1  0  0  0  0
 19 22  2  0  0  0  0
 19 36  1  0  0  0  0
 20 21  2  0  0  0  0
 20 22  1  0  0  0  0
 21 37  1  0  0  0  0
 22 38  1  0  0  0  0
 23 25  2  0  0  0  0
 23 39  1  0  0  0  0
 24 40  1  0  0  0  0
 25 44  1  0  0  0  0
 27 28  1  0  0  0  0
 27 29  2  0  0  0  0
 28 30  2  0  0  0  0
 29 31  1  0  0  0  0
 29 46  1  0  0  0  0
 30 32  1  0  0  0  0
 30 47  1  0  0  0  0
 31 32  2  0  0  0  0
 31 48  1  0  0  0  0
 32 49  1  0  0  0  0
M  END
> <PUBCHEM_COMPOUND_CID>
18451197

> <PUBCHEM_CONFORMER_RMSD>
0.8

> <PUBCHEM_CONFORMER_DIVERSEORDER>
1
41
17
18
33
34
40
12
24
38
22
29
32
3
21
23
8
27
36
16
9
31
15
30
13
7
37
35
10
5
11
19
26
14
39
25
20
2
6
28
4

> <PUBCHEM_MMFF94_PARTIAL_CHARGES>
48
1 -0.08
10 -0.05
11 0.04
12 0.05
13 0.05
14 0.41
15 -0.11
16 -0.05
17 0.16
18 -0.15
19 -0.15
2 -0.19
20 0.12
21 -0.15
22 -0.15
23 -0.15
24 -0.01
25 -0.01
26 0.69
27 0.12
28 0.19
29 -0.15
3 -0.28
30 -0.15
31 -0.15
32 -0.15
33 0.15
34 0.15
35 0.15
36 0.15
37 0.15
38 0.15
39 0.15
4 -0.57
40 0.15
41 0.4
42 0.4
43 0.37
44 0.15
45 0.37
46 0.15
47 0.15
48 0.15
49 0.15
5 -0.62
6 -0.9
7 -0.55
8 -0.55

> <PUBCHEM_EFFECTIVE_ROTOR_COUNT>
6

> <PUBCHEM_PHARMACOPHORE_FEATURES>
11
1 3 acceptor
1 4 acceptor
1 6 donor
1 7 donor
1 8 donor
3 5 6 14 cation
5 1 9 10 11 15 rings
5 3 16 23 24 25 rings
6 13 18 19 20 21 22 rings
6 27 28 29 30 31 32 rings
6 5 9 11 12 14 17 rings

> <PUBCHEM_HEAVY_ATOM_COUNT>
32

> <PUBCHEM_ATOM_DEF_STEREO_COUNT>
0

> <PUBCHEM_ATOM_UDEF_STEREO_COUNT>
0

> <PUBCHEM_BOND_DEF_STEREO_COUNT>
0

> <PUBCHEM_BOND_UDEF_STEREO_COUNT>
0

> <PUBCHEM_ISOTOPIC_ATOM_COUNT>
0

> <PUBCHEM_COMPONENT_COUNT>
1

> <PUBCHEM_CACTVS_TAUTO_COUNT>
6

> <PUBCHEM_CONFORMER_ID>
01198AFD00000001

> <PUBCHEM_MMFF94_ENERGY>
97.2167

> <PUBCHEM_FEATURE_SELFOVERLAP>
55.936

> <PUBCHEM_SHAPE_FINGERPRINT>
10076449 9 18202283598330558065
10299344 5 17967531277056578226
10369192 42 14562522977887944179
106641 1 12175619577469390492
10674148 151 18409444808253212050
11315181 36 18333455352308432489
12089408 11 17676486150678720088
12236239 1 17676481753560688913
12643181 29 18059855091088059271
12741549 16 16128657444892639393
12758862 11 18130503123507514171
13885169 127 17203333282181516481
14040221 8 18342183245397942664
14118638 360 18339644430140945930
14251764 46 18410855455833207501
14294032 229 18189333477317357997
150020 25 18060419123462559024
15183329 4 18113902667720088450
15247644 1 17418373606364060343
15419008 47 17632290164721399184
15419008 91 17988345015513502576
15510794 2 17418092147939158534
16087824 20 18336542717463691613
16728433 281 18044930170071983901
18603816 31 15051721015738806877
19841028 212 17846224294043166422
20105231 36 18334862740609833067
20609170 92 18264203618003578085
21150785 3 17748827414479753680
21360443 120 17967812726137528355
21792934 111 16272204189714666840
21792961 116 17704075062199383176
22224240 67 14189575243378889348
232437 2 17240203235654939251
23559900 14 18128809919305233921
249057 3 18410293635614746076
3092352 35 17095240332398476779
335352 9 18410568497269865559
4017518 198 17917991681673163639
4325135 7 18186519899690213956
4625314 4 18201154450890369172
504579 68 18113622291880543908
5283156 175 18186799167391370594
54039377 194 18114470058696373211
58902169 19 17749112231590017262
59521270 166 18336263453793206309
6126387 218 15339124524643760555
636775 8 18187650250196479979
6691757 9 18411147931060096275
67123 10 16008751312062845025
9663363 56 16988841675200915224
9962374 69 15482377717226242032

> <PUBCHEM_SHAPE_MULTIPOLES>
623.46
32.54
1.54
1.42
36.23
0.58
-0.03
1.5
9.78
-3.34
-0.03
2.54
-0.16
0.52

> <PUBCHEM_SHAPE_SELFOVERLAP>
1389.056

> <PUBCHEM_SHAPE_VOLUME>
336.5

> <PUBCHEM_COORDINATE_TYPE>
2
5
10

$$$$
18451149
  -OEChem-05102415013D

 52 55  0     0  0  0  0  0  0999 V2000
   -4.7971    1.7853    0.4685 S   0  0  0  0  0  0  0  0  0  0  0  0
    3.8314    0.4991   -1.1457 O   0  0  0  0  0  0  0  0  0  0  0  0
   -4.3754   -2.5803   -0.4397 N   0  0  0  0  0  0  0  0  0  0  0  0
    3.0430    0.0628    1.0171 N   0  0  0  0  0  0  0  0  0  0  0  0
   -2.0421   -2.3766   -0.1206 N   0  0  0  0  0  0  0  0  0  0  0  0
    5.3126   -0.0046    0.5926 N   0  0  0  0  0  0  0  0  0  0  0  0
   -9.8269    1.8045   -1.3583 N   0  0  0  0  0  0  0  0  0  0  0  0
   -2.5330    0.5909    0.4737 C   0  0  0  0  0  0  0  0  0  0  0  0
   -3.4925   -0.4220    0.1382 C   0  0  0  0  0  0  0  0  0  0  0  0
   -1.1038    0.4556    0.6129 C   0  0  0  0  0  0  0  0  0  0  0  0
   -4.7878    0.1016    0.1002 C   0  0  0  0  0  0  0  0  0  0  0  0
   -3.1055    1.8241    0.6767 C   0  0  0  0  0  0  0  0  0  0  0  0
   -3.3221   -1.7872   -0.1412 C   0  0  0  0  0  0  0  0  0  0  0  0
   -0.5514    0.1328    1.8524 C   0  0  0  0  0  0  0  0  0  0  0  0
   -0.2741    0.6472   -0.4918 C   0  0  0  0  0  0  0  0  0  0  0  0
   -5.8896   -0.7056   -0.2071 C   0  0  0  0  0  0  0  0  0  0  0  0
    1.6606    0.1937    0.8822 C   0  0  0  0  0  0  0  0  0  0  0  0
    0.8308    0.0018    1.9870 C   0  0  0  0  0  0  0  0  0  0  0  0
    1.1081    0.5165   -0.3572 C   0  0  0  0  0  0  0  0  0  0  0  0
   -5.6072   -2.0354   -0.4656 C   0  0  0  0  0  0  0  0  0  0  0  0
    6.5729    0.0504   -0.0484 C   0  0  0  0  0  0  0  0  0  0  0  0
    4.0458    0.2157    0.0286 C   0  0  0  0  0  0  0  0  0  0  0  0
   -7.2134   -0.1835   -0.2456 C   0  0  0  0  0  0  0  0  0  0  0  0
    8.9789   -0.1466    0.0460 C   0  0  0  0  0  0  0  0  0  0  0  0
    7.7368   -0.2010    0.6782 C   0  0  0  0  0  0  0  0  0  0  0  0
    6.6511    0.3557   -1.4072 C   0  0  0  0  0  0  0  0  0  0  0  0
    9.0571    0.1591   -1.3128 C   0  0  0  0  0  0  0  0  0  0  0  0
    7.8932    0.4100   -2.0394 C   0  0  0  0  0  0  0  0  0  0  0  0
   10.2238   -0.4159    0.8221 C   0  0  0  0  0  0  0  0  0  0  0  0
   -8.3302    0.2580   -0.2794 C   0  0  0  0  0  0  0  0  0  0  0  0
   -9.6939    0.7940   -0.3166 C   0  0  0  0  0  0  0  0  0  0  0  0
   -2.6188    2.7544    0.9382 H   0  0  0  0  0  0  0  0  0  0  0  0
   -1.1842   -0.0211    2.7233 H   0  0  0  0  0  0  0  0  0  0  0  0
   -0.6902    0.8979   -1.4649 H   0  0  0  0  0  0  0  0  0  0  0  0
    1.2477   -0.2505    2.9587 H   0  0  0  0  0  0  0  0  0  0  0  0
    1.6809    0.6800   -1.2587 H   0  0  0  0  0  0  0  0  0  0  0  0
   -6.3995   -2.7373   -0.7124 H   0  0  0  0  0  0  0  0  0  0  0  0
    3.3706   -0.1738    1.9504 H   0  0  0  0  0  0  0  0  0  0  0  0
   -1.2015   -1.8665    0.0893 H   0  0  0  0  0  0  0  0  0  0  0  0
   -1.9745   -3.3642   -0.3303 H   0  0  0  0  0  0  0  0  0  0  0  0
    5.3376   -0.2329    1.5831 H   0  0  0  0  0  0  0  0  0  0  0  0
    7.6772   -0.4378    1.7382 H   0  0  0  0  0  0  0  0  0  0  0  0
    5.7985    0.5625   -2.0379 H   0  0  0  0  0  0  0  0  0  0  0  0
   10.0189    0.2063   -1.8165 H   0  0  0  0  0  0  0  0  0  0  0  0
    7.9555    0.6483   -3.0973 H   0  0  0  0  0  0  0  0  0  0  0  0
   11.0103   -0.8268    0.1800 H   0  0  0  0  0  0  0  0  0  0  0  0
   10.0425   -1.1494    1.6152 H   0  0  0  0  0  0  0  0  0  0  0  0
   10.5909    0.5097    1.2763 H   0  0  0  0  0  0  0  0  0  0  0  0
   -9.9551    1.2323    0.6523 H   0  0  0  0  0  0  0  0  0  0  0  0
  -10.4044   -0.0157   -0.5126 H   0  0  0  0  0  0  0  0  0  0  0  0
   -9.2394    2.6074   -1.1349 H   0  0  0  0  0  0  0  0  0  0  0  0
  -10.7850    2.1527   -1.3689 H   0  0  0  0  0  0  0  0  0  0  0  0
  1 11  1  0  0  0  0
  1 12  1  0  0  0  0
  2 22  2  0  0  0  0
  3 13  2  0  0  0  0
  3 20  1  0  0  0  0
  4 17  1  0  0  0  0
  4 22  1  0  0  0  0
  4 38  1  0  0  0  0
  5 13  1  0  0  0  0
  5 39  1  0  0  0  0
  5 40  1  0  0  0  0
  6 21  1  0  0  0  0
  6 22  1  0  0  0  0
  6 41  1  0  0  0  0
  7 31  1  0  0  0  0
  7 51  1  0  0  0  0
  7 52  1  0  0  0  0
  8  9  1  0  0  0  0
  8 10  1  0  0  0  0
  8 12  2  0  0  0  0
  9 11  2  0  0  0  0
  9 13  1  0  0  0  0
 10 14  2  0  0  0  0
 10 15  1  0  0  0  0
 11 16  1  0  0  0  0
 12 32  1  0  0  0  0
 14 18  1  0  0  0  0
 14 33  1  0  0  0  0
 15 19  2  0  0  0  0
 15 34  1  0  0  0  0
 16 20  2  0  0  0  0
 16 23  1  0  0  0  0
 17 18  2  0  0  0  0
 17 19  1  0  0  0  0
 18 35  1  0  0  0  0
 19 36  1  0  0  0  0
 20 37  1  0  0  0  0
 21 25  1  0  0  0  0
 21 26  2  0  0  0  0
 23 30  3  0  0  0  0
 24 25  2  0  0  0  0
 24 27  1  0  0  0  0
 24 29  1  0  0  0  0
 25 42  1  0  0  0  0
 26 28  1  0  0  0  0
 26 43  1  0  0  0  0
 27 28  2  0  0  0  0
 27 44  1  0  0  0  0
 28 45  1  0  0  0  0
 29 46  1  0  0  0  0
 29 47  1  0  0  0  0
 29 48  1  0  0  0  0
 30 31  1  0  0  0  0
 31 49  1  0  0  0  0
 31 50  1  0  0  0  0
M  END
> <PUBCHEM_COMPOUND_CID>
18451149

> <PUBCHEM_CONFORMER_RMSD>
0.8

> <PUBCHEM_CONFORMER_DIVERSEORDER>
2
13
9
14
26
10
5
18
17
23
1
4
12
7
11
16
20
15
6
19
25
8
3
27
22
24
21

> <PUBCHEM_MMFF94_PARTIAL_CHARGES>
46
1 -0.08
10 0.05
11 0.04
12 -0.11
13 0.41
14 -0.15
15 -0.15
16 0.07
17 0.12
18 -0.15
19 -0.15
2 -0.57
20 0.16
21 0.12
22 0.69
23 -0.07
24 -0.14
25 -0.15
26 -0.15
27 -0.15
28 -0.15
29 0.14
3 -0.62
30 -0.2
31 0.47
32 0.15
33 0.15
34 0.15
35 0.15
36 0.15
37 0.15
38 0.37
39 0.4
4 -0.55
40 0.4
41 0.37
42 0.15
43 0.15
44 0.15
45 0.15
5 -0.9
51 0.36
52 0.36
6 -0.55
7 -0.99
8 -0.05

> <PUBCHEM_EFFECTIVE_ROTOR_COUNT>
5

> <PUBCHEM_PHARMACOPHORE_FEATURES>
11
1 2 acceptor
1 4 donor
1 5 donor
1 6 donor
1 7 cation
1 7 donor
3 3 5 13 cation
5 1 8 9 11 12 rings
6 10 14 15 17 18 19 rings
6 21 24 25 26 27 28 rings
6 3 9 11 13 16 20 rings

> <PUBCHEM_HEAVY_ATOM_COUNT>
31

> <PUBCHEM_ATOM_DEF_STEREO_COUNT>
0

> <PUBCHEM_ATOM_UDEF_STEREO_COUNT>
0

> <PUBCHEM_BOND_DEF_STEREO_COUNT>
0

> <PUBCHEM_BOND_UDEF_STEREO_COUNT>
0

> <PUBCHEM_ISOTOPIC_ATOM_COUNT>
0

> <PUBCHEM_COMPONENT_COUNT>
1

> <PUBCHEM_CACTVS_TAUTO_COUNT>
6

> <PUBCHEM_CONFORMER_ID>
01198ACD00000002

> <PUBCHEM_MMFF94_ENERGY>
90.3245

> <PUBCHEM_FEATURE_SELFOVERLAP>
55.936

> <PUBCHEM_SHAPE_FINGERPRINT>
10299344 5 18260267456507337134
10369192 42 14490464301159710947
106641 1 11672061947777091728
10674148 151 18411696603961892515
11315181 36 18335988639830639145
11828042 53 18052816949566270017
12082328 90 18060140899602310364
12089408 11 17967814972125218614
12144603 126 17894347761578897041
12236239 1 17967809471173945747
12643181 29 17988924504937288479
12758862 11 18060133280234940843
12838862 33 17561077003923676462
13885169 127 17489594441386702448
14040221 8 18343589524954039928
14068700 675 18408045117921615700
14251764 46 18410573985156732393
14294032 229 18263924346430518297
14856354 85 18410860987883252735
15065858 18 17489867146272283398
15183329 4 17603302679116257938
15247644 1 15339120147497463772
15392192 104 10952052256424889100
15419008 47 17346596366284730176
15419008 91 17846201251780896504
15510794 2 17346602950780232806
16087824 20 18337388241958172781
16728433 281 18119241767363151973
20105231 36 18335988653428074835
20609170 92 18338794487021948781
21150785 3 18114181943330606794
21360443 120 18113898243324344003
21360443 89 8718531819773433645
21792934 111 16056874737277314426
21792961 116 17346884416228258889
23559900 14 18057877129962652553
23576562 1 15069193435823873918
249057 3 18412263960319864732
3092352 35 17385442133726907339
335352 9 18412820292888816693
3383291 50 16773800320575342446
4017518 198 17704069604193243479
4325135 7 18187365433033222550
4625314 4 18201716305505849713
5265222 85 18129382760277985854
54039377 194 18188216524048627491
58083652 198 16200151040646461906
58902169 19 17894915183020769414
59521270 166 18336261259260031861
6126387 218 15051740772461345075
6691757 9 18271535239058086955
9663363 56 16845569812416963082
9962374 69 15195272145674983416

> <PUBCHEM_SHAPE_MULTIPOLES>
611.04
34.29
1.61
1.37
31.2
0.76
0.03
-2.5
11.47
-4.19
0.12
1.99
-0.25
-0.12

> <PUBCHEM_SHAPE_SELFOVERLAP>
1326.88

> <PUBCHEM_SHAPE_VOLUME>
334.2

> <PUBCHEM_COORDINATE_TYPE>
2
5
10

$$$$
18451199
  -OEChem-05102415013D

 49 53  0     0  0  0  0  0  0999 V2000
   -4.4882   -0.5087    1.8917 S   0  0  0  0  0  0  0  0  0  0  0  0
    8.4097    2.8038    0.7260 F   0  0  0  0  0  0  0  0  0  0  0  0
   -9.1175    0.0210    0.2991 O   0  0  0  0  0  0  0  0  0  0  0  0
    4.1677    0.8166    0.4744 O   0  0  0  0  0  0  0  0  0  0  0  0
   -4.1439    0.7332   -2.3979 N   0  0  0  0  0  0  0  0  0  0  0  0
   -1.8241    0.2911   -2.2941 N   0  0  0  0  0  0  0  0  0  0  0  0
    3.2671   -1.2656   -0.1111 N   0  0  0  0  0  0  0  0  0  0  0  0
    5.5514   -0.9382   -0.2149 N   0  0  0  0  0  0  0  0  0  0  0  0
   -3.2305   -0.0585   -0.3216 C   0  0  0  0  0  0  0  0  0  0  0  0
   -2.2607   -0.5188    0.6306 C   0  0  0  0  0  0  0  0  0  0  0  0
   -4.5078   -0.0047    0.2436 C   0  0  0  0  0  0  0  0  0  0  0  0
   -5.6154    0.4171   -0.5015 C   0  0  0  0  0  0  0  0  0  0  0  0
   -0.8440   -0.7111    0.4399 C   0  0  0  0  0  0  0  0  0  0  0  0
   -3.0846    0.3234   -1.6646 C   0  0  0  0  0  0  0  0  0  0  0  0
   -2.8082   -0.7956    1.8608 C   0  0  0  0  0  0  0  0  0  0  0  0
   -6.9301    0.4796    0.0603 C   0  0  0  0  0  0  0  0  0  0  0  0
   -5.3577    0.7702   -1.8143 C   0  0  0  0  0  0  0  0  0  0  0  0
    0.0413    0.3363    0.6947 C   0  0  0  0  0  0  0  0  0  0  0  0
   -0.3589   -1.9433    0.0017 C   0  0  0  0  0  0  0  0  0  0  0  0
    1.8967   -1.0809    0.0735 C   0  0  0  0  0  0  0  0  0  0  0  0
    1.4115    0.1514    0.5116 C   0  0  0  0  0  0  0  0  0  0  0  0
    1.0113   -2.1282   -0.1815 C   0  0  0  0  0  0  0  0  0  0  0  0
   -7.4240    1.2229    1.1589 C   0  0  0  0  0  0  0  0  0  0  0  0
   -7.9987   -0.2353   -0.4285 C   0  0  0  0  0  0  0  0  0  0  0  0
   -8.7592    0.9093    1.2630 C   0  0  0  0  0  0  0  0  0  0  0  0
    4.3189   -0.3386    0.0901 C   0  0  0  0  0  0  0  0  0  0  0  0
    6.8413   -0.3606   -0.1475 C   0  0  0  0  0  0  0  0  0  0  0  0
    6.9922    0.9637    0.2641 C   0  0  0  0  0  0  0  0  0  0  0  0
    7.9620   -1.1156   -0.4933 C   0  0  0  0  0  0  0  0  0  0  0  0
    8.2639    1.5328    0.3300 C   0  0  0  0  0  0  0  0  0  0  0  0
    9.2337   -0.5463   -0.4274 C   0  0  0  0  0  0  0  0  0  0  0  0
    9.3847    0.7778   -0.0158 C   0  0  0  0  0  0  0  0  0  0  0  0
   -2.3091   -1.1542    2.7515 H   0  0  0  0  0  0  0  0  0  0  0  0
   -6.1526    1.1142   -2.4712 H   0  0  0  0  0  0  0  0  0  0  0  0
   -0.3219    1.3032    1.0356 H   0  0  0  0  0  0  0  0  0  0  0  0
   -1.0357   -2.7696   -0.2027 H   0  0  0  0  0  0  0  0  0  0  0  0
    2.0301    1.0101    0.7295 H   0  0  0  0  0  0  0  0  0  0  0  0
    1.3753   -3.0936   -0.5240 H   0  0  0  0  0  0  0  0  0  0  0  0
   -6.8831    1.9080    1.7967 H   0  0  0  0  0  0  0  0  0  0  0  0
   -8.1273   -0.9351   -1.2424 H   0  0  0  0  0  0  0  0  0  0  0  0
   -0.9809    0.0016   -1.8292 H   0  0  0  0  0  0  0  0  0  0  0  0
   -1.7738    0.5769   -3.2635 H   0  0  0  0  0  0  0  0  0  0  0  0
    3.5440   -2.1899   -0.4325 H   0  0  0  0  0  0  0  0  0  0  0  0
   -9.5497    1.2176    1.9315 H   0  0  0  0  0  0  0  0  0  0  0  0
    5.5239   -1.9067   -0.5235 H   0  0  0  0  0  0  0  0  0  0  0  0
    6.1765    1.6127    0.5481 H   0  0  0  0  0  0  0  0  0  0  0  0
    7.8584   -2.1484   -0.8158 H   0  0  0  0  0  0  0  0  0  0  0  0
   10.1065   -1.1340   -0.6966 H   0  0  0  0  0  0  0  0  0  0  0  0
   10.3747    1.2212    0.0358 H   0  0  0  0  0  0  0  0  0  0  0  0
  1 11  1  0  0  0  0
  1 15  1  0  0  0  0
  2 30  1  0  0  0  0
  3 24  1  0  0  0  0
  3 25  1  0  0  0  0
  4 26  2  0  0  0  0
  5 14  2  0  0  0  0
  5 17  1  0  0  0  0
  6 14  1  0  0  0  0
  6 41  1  0  0  0  0
  6 42  1  0  0  0  0
  7 20  1  0  0  0  0
  7 26  1  0  0  0  0
  7 43  1  0  0  0  0
  8 26  1  0  0  0  0
  8 27  1  0  0  0  0
  8 45  1  0  0  0  0
  9 10  1  0  0  0  0
  9 11  2  0  0  0  0
  9 14  1  0  0  0  0
 10 13  1  0  0  0  0
 10 15  2  0  0  0  0
 11 12  1  0  0  0  0
 12 16  1  0  0  0  0
 12 17  2  0  0  0  0
 13 18  2  0  0  0  0
 13 19  1  0  0  0  0
 15 33  1  0  0  0  0
 16 23  1  0  0  0  0
 16 24  2  0  0  0  0
 17 34  1  0  0  0  0
 18 21  1  0  0  0  0
 18 35  1  0  0  0  0
 19 22  2  0  0  0  0
 19 36  1  0  0  0  0
 20 21  2  0  0  0  0
 20 22  1  0  0  0  0
 21 37  1  0  0  0  0
 22 38  1  0  0  0  0
 23 25  2  0  0  0  0
 23 39  1  0  0  0  0
 24 40  1  0  0  0  0
 25 44  1  0  0  0  0
 27 28  2  0  0  0  0
 27 29  1  0  0  0  0
 28 30  1  0  0  0  0
 28 46  1  0  0  0  0
 29 31  2  0  0  0  0
 29 47  1  0  0  0  0
 30 32  2  0  0  0  0
 31 32  1  0  0  0  0
 31 48  1  0  0  0  0
 32 49  1  0  0  0  0
M  END
> <PUBCHEM_COMPOUND_CID>
18451199

> <PUBCHEM_CONFORMER_RMSD>
0.8

> <PUBCHEM_CONFORMER_DIVERSEORDER>
1
8
32
7
33
25
5
29
31
26
10
6
14
28
21
30
22
34
12
11
9
27
23
19
2
17
24
18
4
13
16
15
20
3

> <PUBCHEM_MMFF94_PARTIAL_CHARGES>
48
1 -0.08
10 -0.05
11 0.04
12 0.05
13 0.05
14 0.41
15 -0.11
16 -0.05
17 0.16
18 -0.15
19 -0.15
2 -0.19
20 0.12
21 -0.15
22 -0.15
23 -0.15
24 -0.01
25 -0.01
26 0.69
27 0.12
28 -0.15
29 -0.15
3 -0.28
30 0.19
31 -0.15
32 -0.15
33 0.15
34 0.15
35 0.15
36 0.15
37 0.15
38 0.15
39 0.15
4 -0.57
40 0.15
41 0.4
42 0.4
43 0.37
44 0.15
45 0.37
46 0.15
47 0.15
48 0.15
49 0.15
5 -0.62
6 -0.9
7 -0.55
8 -0.55

> <PUBCHEM_EFFECTIVE_ROTOR_COUNT>
6

> <PUBCHEM_PHARMACOPHORE_FEATURES>
11
1 3 acceptor
1 4 acceptor
1 6 donor
1 7 donor
1 8 donor
3 5 6 14 cation
5 1 9 10 11 15 rings
5 3 16 23 24 25 rings
6 13 18 19 20 21 22 rings
6 27 28 29 30 31 32 rings
6 5 9 11 12 14 17 rings

> <PUBCHEM_HEAVY_ATOM_COUNT>
32

> <PUBCHEM_ATOM_DEF_STEREO_COUNT>
0

> <PUBCHEM_ATOM_UDEF_STEREO_COUNT>
0

> <PUBCHEM_BOND_DEF_STEREO_COUNT>
0

> <PUBCHEM_BOND_UDEF_STEREO_COUNT>
0

> <PUBCHEM_ISOTOPIC_ATOM_COUNT>
0

> <PUBCHEM_COMPONENT_COUNT>
1

> <PUBCHEM_CACTVS_TAUTO_COUNT>
6

> <PUBCHEM_CONFORMER_ID>
01198AFF00000001

> <PUBCHEM_MMFF94_ENERGY>
97.1124

> <PUBCHEM_FEATURE_SELFOVERLAP>
55.936

> <PUBCHEM_SHAPE_FINGERPRINT>
10 15 17458343035275378826
10076449 9 17748829609672603493
10165383 225 18335139778832410091
10299344 5 16774077363013349726
10369192 42 18408600336606148967
10625338 86 17748821916969464628
106641 1 16225769614138798431
10674148 151 15482664676190738462
11315181 36 15985104124116535859
12082328 90 18131632274978977295
12089408 11 17346878944355358534
12236239 1 17274819130758458883
12664476 115 17894347787153944516
12838862 33 16660635268361667095
13560911 43 15791733001207443740
14251764 18 13984662551492497506
14251764 46 18343866610568359490
15183329 4 16272209700268450566
15419008 47 17967527978849522780
15461852 350 17561082531609681703
15510794 2 18041003929965222546
16728433 281 15839882707448122721
18643901 69 13110965327320230307
21033648 29 18115580578214292744
21150785 3 17203610376043541370
21360443 120 16845577487281357311
21792961 116 18040716922874896898
24771293 8 17603867759484202333
249057 3 17095529516862250766
3092352 35 17918270948166031287
395649 100 18337669823982187103
44280117 145 18265618877999634899
504579 68 16559032701283472992
54039377 194 16415473900836171367
58902169 19 17275097367309041428
59521270 166 15410620242443944809
59682541 35 17603588530020915409
6081469 158 14189578525023975776
6691757 9 14908187477930274295
67123 10 18344146994834315051
9953998 17 18040157331675766771

> <PUBCHEM_SHAPE_MULTIPOLES>
623.46
32.7
1.55
1.52
38.33
0.21
0.29
8.19
10.19
-1.08
-0.28
0.48
0.25
3.02

> <PUBCHEM_SHAPE_SELFOVERLAP>
1388.561

> <PUBCHEM_SHAPE_VOLUME>
336.7

> <PUBCHEM_COORDINATE_TYPE>
2
5
10

$$$$
49830358
  -OEChem-05102415013D

 55 59  0     0  0  0  0  0  0999 V2000
    4.2639   -1.8216    0.6265 S   0  0  0  0  0  0  0  0  0  0  0  0
   -4.3389    0.2675    1.2236 O   0  0  0  0  0  0  0  0  0  0  0  0
    3.8833    2.2648   -1.1679 N   0  0  0  0  0  0  0  0  0  0  0  0
    8.6907    0.1292    0.9800 N   0  0  0  0  0  0  0  0  0  0  0  0
    1.5455    1.9411   -1.3005 N   0  0  0  0  0  0  0  0  0  0  0  0
    8.6982   -0.9463    0.1742 N   0  0  0  0  0  0  0  0  0  0  0  0
   -3.5680   -0.6437   -0.7925 N   0  0  0  0  0  0  0  0  0  0  0  0
   -5.8326   -0.3131   -0.4795 N   0  0  0  0  0  0  0  0  0  0  0  0
    2.9789    0.1824   -0.3818 C   0  0  0  0  0  0  0  0  0  0  0  0
    4.2707   -0.2368   -0.0514 C   0  0  0  0  0  0  0  0  0  0  0  0
    2.0089   -0.8260   -0.0634 C   0  0  0  0  0  0  0  0  0  0  0  0
    5.3813    0.5859   -0.2741 C   0  0  0  0  0  0  0  0  0  0  0  0
    0.5793   -0.7799   -0.2499 C   0  0  0  0  0  0  0  0  0  0  0  0
    2.8213    1.4582   -0.9464 C   0  0  0  0  0  0  0  0  0  0  0  0
    6.7110    0.1740    0.0585 C   0  0  0  0  0  0  0  0  0  0  0  0
    2.5703   -1.9544    0.4853 C   0  0  0  0  0  0  0  0  0  0  0  0
    5.1113    1.8218   -0.8350 C   0  0  0  0  0  0  0  0  0  0  0  0
   -0.2408   -0.2846    0.7640 C   0  0  0  0  0  0  0  0  0  0  0  0
    0.0169   -1.2298   -1.4444 C   0  0  0  0  0  0  0  0  0  0  0  0
    7.5236    0.8342    0.9475 C   0  0  0  0  0  0  0  0  0  0  0  0
   -2.1854   -0.6897   -0.6111 C   0  0  0  0  0  0  0  0  0  0  0  0
    7.4862   -0.9137   -0.3861 C   0  0  0  0  0  0  0  0  0  0  0  0
   -1.6231   -0.2396    0.5835 C   0  0  0  0  0  0  0  0  0  0  0  0
   -1.3654   -1.1848   -1.6251 C   0  0  0  0  0  0  0  0  0  0  0  0
    9.8558    0.4379    1.7740 C   0  0  0  0  0  0  0  0  0  0  0  0
   -4.5622   -0.1811    0.1038 C   0  0  0  0  0  0  0  0  0  0  0  0
   -7.0869    0.0305    0.0778 C   0  0  0  0  0  0  0  0  0  0  0  0
   -9.4924    0.1610   -0.1026 C   0  0  0  0  0  0  0  0  0  0  0  0
   -8.2562   -0.1759   -0.6539 C   0  0  0  0  0  0  0  0  0  0  0  0
   -7.1536    0.5737    1.3609 C   0  0  0  0  0  0  0  0  0  0  0  0
   -9.5593    0.7044    1.1804 C   0  0  0  0  0  0  0  0  0  0  0  0
   -8.3900    0.9107    1.9121 C   0  0  0  0  0  0  0  0  0  0  0  0
  -10.7427   -0.0562   -0.8863 C   0  0  0  0  0  0  0  0  0  0  0  0
    2.0742   -2.8580    0.8143 H   0  0  0  0  0  0  0  0  0  0  0  0
    5.9086    2.5292   -1.0485 H   0  0  0  0  0  0  0  0  0  0  0  0
    0.1831    0.0710    1.7004 H   0  0  0  0  0  0  0  0  0  0  0  0
    0.6422   -1.6174   -2.2454 H   0  0  0  0  0  0  0  0  0  0  0  0
    7.3754    1.7232    1.5466 H   0  0  0  0  0  0  0  0  0  0  0  0
    7.2254   -1.6845   -1.0979 H   0  0  0  0  0  0  0  0  0  0  0  0
   -2.1883    0.1573    1.4145 H   0  0  0  0  0  0  0  0  0  0  0  0
   -1.7900   -1.5382   -2.5614 H   0  0  0  0  0  0  0  0  0  0  0  0
    0.6992    1.4135   -1.1725 H   0  0  0  0  0  0  0  0  0  0  0  0
    1.4872    2.8674   -1.7034 H   0  0  0  0  0  0  0  0  0  0  0  0
   -3.9027   -0.9888   -1.6887 H   0  0  0  0  0  0  0  0  0  0  0  0
    9.6689    1.3399    2.3618 H   0  0  0  0  0  0  0  0  0  0  0  0
   10.6991    0.6007    1.0982 H   0  0  0  0  0  0  0  0  0  0  0  0
   10.0526   -0.4069    2.4387 H   0  0  0  0  0  0  0  0  0  0  0  0
   -5.8655   -0.7036   -1.4178 H   0  0  0  0  0  0  0  0  0  0  0  0
   -8.2052   -0.5977   -1.6552 H   0  0  0  0  0  0  0  0  0  0  0  0
   -6.2963    0.7641    1.9903 H   0  0  0  0  0  0  0  0  0  0  0  0
  -10.5161    0.9734    1.6200 H   0  0  0  0  0  0  0  0  0  0  0  0
   -8.4433    1.3344    2.9108 H   0  0  0  0  0  0  0  0  0  0  0  0
  -11.5987   -0.2332   -0.2263 H   0  0  0  0  0  0  0  0  0  0  0  0
  -10.6529   -0.9335   -1.5360 H   0  0  0  0  0  0  0  0  0  0  0  0
  -10.9544    0.8205   -1.5064 H   0  0  0  0  0  0  0  0  0  0  0  0
  1 10  1  0  0  0  0
  1 16  1  0  0  0  0
  2 26  2  0  0  0  0
  3 14  2  0  0  0  0
  3 17  1  0  0  0  0
  4  6  1  0  0  0  0
  4 20  1  0  0  0  0
  4 25  1  0  0  0  0
  5 14  1  0  0  0  0
  5 42  1  0  0  0  0
  5 43  1  0  0  0  0
  6 22  2  0  0  0  0
  7 21  1  0  0  0  0
  7 26  1  0  0  0  0
  7 44  1  0  0  0  0
  8 26  1  0  0  0  0
  8 27  1  0  0  0  0
  8 48  1  0  0  0  0
  9 10  2  0  0  0  0
  9 11  1  0  0  0  0
  9 14  1  0  0  0  0
 10 12  1  0  0  0  0
 11 13  1  0  0  0  0
 11 16  2  0  0  0  0
 12 15  1  0  0  0  0
 12 17  2  0  0  0  0
 13 18  2  0  0  0  0
 13 19  1  0  0  0  0
 15 20  2  0  0  0  0
 15 22  1  0  0  0  0
 16 34  1  0  0  0  0
 17 35  1  0  0  0  0
 18 23  1  0  0  0  0
 18 36  1  0  0  0  0
 19 24  2  0  0  0  0
 19 37  1  0  0  0  0
 20 38  1  0  0  0  0
 21 23  2  0  0  0  0
 21 24  1  0  0  0  0
 22 39  1  0  0  0  0
 23 40  1  0  0  0  0
 24 41  1  0  0  0  0
 25 45  1  0  0  0  0
 25 46  1  0  0  0  0
 25 47  1  0  0  0  0
 27 29  1  0  0  0  0
 27 30  2  0  0  0  0
 28 29  2  0  0  0  0
 28 31  1  0  0  0  0
 28 33  1  0  0  0  0
 29 49  1  0  0  0  0
 30 32  1  0  0  0  0
 30 50  1  0  0  0  0
 31 32  2  0  0  0  0
 31 51  1  0  0  0  0
 32 52  1  0  0  0  0
 33 53  1  0  0  0  0
 33 54  1  0  0  0  0
 33 55  1  0  0  0  0
M  END
> <PUBCHEM_COMPOUND_CID>
49830358

> <PUBCHEM_CONFORMER_RMSD>
0.8

> <PUBCHEM_CONFORMER_DIVERSEORDER>
1
47
21
11
10
49
31
46
42
25
6
27
22
5
20
7
50
26
8
23
9
38
44
39
43
14
34
48
30
37
18
24
32
41
19
12
40
45
36
28
16
4
33
17
35
15
29
3
13
2

> <PUBCHEM_MMFF94_PARTIAL_CHARGES>
48
1 -0.08
10 0.04
11 -0.05
12 0.05
13 0.05
14 0.41
15 -0.05
16 -0.11
17 0.16
18 -0.15
19 -0.15
2 -0.57
20 -0.3
21 0.12
22 0.14
23 -0.15
24 -0.15
25 0.26
26 0.69
27 0.12
28 -0.14
29 -0.15
3 -0.62
30 -0.15
31 -0.15
32 -0.15
33 0.14
34 0.15
35 0.15
36 0.15
37 0.15
38 0.15
39 0.15
4 0.31
40 0.15
41 0.15
42 0.4
43 0.4
44 0.37
48 0.37
49 0.15
5 -0.9
50 0.15
51 0.15
52 0.15
6 -0.71
7 -0.55
8 -0.55

> <PUBCHEM_EFFECTIVE_ROTOR_COUNT>
6

> <PUBCHEM_PHARMACOPHORE_FEATURES>
11
1 2 acceptor
1 5 donor
1 6 acceptor
1 7 donor
1 8 donor
3 3 5 14 cation
5 1 9 10 11 16 rings
5 4 6 15 20 22 rings
6 13 18 19 21 23 24 rings
6 27 28 29 30 31 32 rings
6 3 9 10 12 14 17 rings

> <PUBCHEM_HEAVY_ATOM_COUNT>
33

> <PUBCHEM_ATOM_DEF_STEREO_COUNT>
0

> <PUBCHEM_ATOM_UDEF_STEREO_COUNT>
0

> <PUBCHEM_BOND_DEF_STEREO_COUNT>
0

> <PUBCHEM_BOND_UDEF_STEREO_COUNT>
0

> <PUBCHEM_ISOTOPIC_ATOM_COUNT>
0

> <PUBCHEM_COMPONENT_COUNT>
1

> <PUBCHEM_CACTVS_TAUTO_COUNT>
6

> <PUBCHEM_CONFORMER_ID>
02F859D600000001

> <PUBCHEM_MMFF94_ENERGY>
102.1611

> <PUBCHEM_FEATURE_SELFOVERLAP>
55.936

> <PUBCHEM_SHAPE_FINGERPRINT>
10162869 55 18408318913443319543
10533779 47 17749396923022492123
11135609 127 16343413016805978048
11409948 35 15864337005479715474
11443803 9 17704070698829531039
11456790 92 17967814950640384985
12013929 2 14995996636882024061
12089408 11 17632578228129987435
12236239 1 18201717392918442470
12539745 222 15864062140325934365
12664476 115 18186515506134375317
12741549 16 16877938339438191492
14150022 121 17023179384676854469
14251764 46 17060338522007733806
14294032 229 17632574912837397181
14344974 52 16056588898471535243
15131766 46 16736665547855045236
15183329 4 17703798020631183513
15247644 1 13190343465924672737
15301273 46 15863788405080522925
15419008 47 16732698355636439589
15510794 2 16515404058809024595
15840311 113 18131351925943314888
16728433 281 13613423368519091291
1818759 1 11891334249159783409
19841028 212 11963655712576605001
20105231 36 14273731846526625072
20812841 46 18334289869281528960
21057603 238 16300898007717263598
21057603 43 17988923307496455166
21095086 128 13334731324283160216
21150785 3 14548739504316403599
21267235 1 13334735734592269486
21362267 20 14418139534576268361
21362267 313 17345480284034795922
21403212 168 18409166610315747646
21591340 7 18130785672658746815
21792934 111 18333726940861570108
22956985 138 12686742894569145304
24771293 8 17846225424041090249
24893992 56 17603870030846681515
249057 3 18260269667972577863
3092352 35 18273494577073981727
3178227 256 17894630366722791690
395649 100 17846773049625254359
397830 11 17314528096406426521
4874694 18 18186519904756191971
5028188 123 14476958988147879937
54039377 194 12107789610157060675
6081469 158 16877662353033753076
67123 10 17132113541979316491
9663363 56 18040152917208677596

> <PUBCHEM_SHAPE_MULTIPOLES>
647.22
36.25
1.55
1.41
44.22
0.04
-0.04
8.84
-10.37
-1.69
0.25
-0.05
0.38
-2.03

> <PUBCHEM_SHAPE_SELFOVERLAP>
1429.323

> <PUBCHEM_SHAPE_VOLUME>
351

> <PUBCHEM_COORDINATE_TYPE>
2
5
10

$$$$
49830372
  -OEChem-05102415013D

 62 66  0     0  0  0  0  0  0999 V2000
    2.9289    0.2946   -1.9066 S   0  0  0  0  0  0  0  0  0  0  0  0
  -11.9894    0.2524    0.1120 F   0  0  0  0  0  0  0  0  0  0  0  0
    8.6522   -3.1834    0.7397 O   0  0  0  0  0  0  0  0  0  0  0  0
   -5.5726   -1.3080    0.0644 O   0  0  0  0  0  0  0  0  0  0  0  0
    7.3951   -0.0257   -0.0443 N   0  0  0  0  0  0  0  0  0  0  0  0
    7.3256    0.9433   -0.9729 N   0  0  0  0  0  0  0  0  0  0  0  0
    2.4676    1.3608    2.4192 N   0  0  0  0  0  0  0  0  0  0  0  0
    8.0274   -2.6197   -1.3887 N   0  0  0  0  0  0  0  0  0  0  0  0
    0.1223    1.3610    2.1239 N   0  0  0  0  0  0  0  0  0  0  0  0
   -4.9721    0.8841   -0.5043 N   0  0  0  0  0  0  0  0  0  0  0  0
   -7.2011    0.3450   -0.2273 N   0  0  0  0  0  0  0  0  0  0  0  0
    8.7011   -0.8134    0.1399 C   0  0  0  0  0  0  0  0  0  0  0  0
    5.3510    0.7183    0.1531 C   0  0  0  0  0  0  0  0  0  0  0  0
    9.1855   -0.6108    1.5940 C   0  0  0  0  0  0  0  0  0  0  0  0
    9.8563   -0.3680   -0.7856 C   0  0  0  0  0  0  0  0  0  0  0  0
    6.2387   -0.2004    0.6577 C   0  0  0  0  0  0  0  0  0  0  0  0
    4.0067    0.8738    0.6149 C   0  0  0  0  0  0  0  0  0  0  0  0
    2.9053    0.7024   -0.2321 C   0  0  0  0  0  0  0  0  0  0  0  0
    1.5978    0.8576    0.2369 C   0  0  0  0  0  0  0  0  0  0  0  0
    8.4643   -2.3189   -0.1153 C   0  0  0  0  0  0  0  0  0  0  0  0
    0.6414    0.6335   -0.8091 C   0  0  0  0  0  0  0  0  0  0  0  0
    6.0746    1.3941   -0.8476 C   0  0  0  0  0  0  0  0  0  0  0  0
    1.4148    1.1918    1.5882 C   0  0  0  0  0  0  0  0  0  0  0  0
    3.7114    1.2020    1.9264 C   0  0  0  0  0  0  0  0  0  0  0  0
   -0.7976    0.6974   -0.7316 C   0  0  0  0  0  0  0  0  0  0  0  0
    1.2278    0.3224   -2.0128 C   0  0  0  0  0  0  0  0  0  0  0  0
   -1.5302   -0.4449   -0.4088 C   0  0  0  0  0  0  0  0  0  0  0  0
   -1.4565    1.9018   -0.9788 C   0  0  0  0  0  0  0  0  0  0  0  0
   -3.5804    0.8215   -0.5807 C   0  0  0  0  0  0  0  0  0  0  0  0
   -2.9216   -0.3829   -0.3334 C   0  0  0  0  0  0  0  0  0  0  0  0
   -2.8479    1.9638   -0.9033 C   0  0  0  0  0  0  0  0  0  0  0  0
   -5.8878   -0.1509   -0.1941 C   0  0  0  0  0  0  0  0  0  0  0  0
   -8.4038   -0.3575    0.0214 C   0  0  0  0  0  0  0  0  0  0  0  0
   -9.6277    0.3068   -0.0575 C   0  0  0  0  0  0  0  0  0  0  0  0
   -8.3657   -1.7135    0.3468 C   0  0  0  0  0  0  0  0  0  0  0  0
  -10.8137   -0.3848    0.1887 C   0  0  0  0  0  0  0  0  0  0  0  0
   -9.5518   -2.4049    0.5932 C   0  0  0  0  0  0  0  0  0  0  0  0
  -10.7757   -1.7406    0.5143 C   0  0  0  0  0  0  0  0  0  0  0  0
    9.3366    0.4525    1.8137 H   0  0  0  0  0  0  0  0  0  0  0  0
   10.1331   -1.1316    1.7752 H   0  0  0  0  0  0  0  0  0  0  0  0
    8.4626   -0.9976    2.3213 H   0  0  0  0  0  0  0  0  0  0  0  0
   10.7414   -1.0003   -0.6491 H   0  0  0  0  0  0  0  0  0  0  0  0
    9.5776   -0.4222   -1.8439 H   0  0  0  0  0  0  0  0  0  0  0  0
   10.1468    0.6690   -0.5811 H   0  0  0  0  0  0  0  0  0  0  0  0
    6.1466   -0.9488    1.4336 H   0  0  0  0  0  0  0  0  0  0  0  0
    5.7493    2.1998   -1.4909 H   0  0  0  0  0  0  0  0  0  0  0  0
    4.4995    1.3587    2.6585 H   0  0  0  0  0  0  0  0  0  0  0  0
    0.7461    0.1078   -2.9577 H   0  0  0  0  0  0  0  0  0  0  0  0
    7.8448   -3.5795   -1.6624 H   0  0  0  0  0  0  0  0  0  0  0  0
    7.8547   -1.9071   -2.0901 H   0  0  0  0  0  0  0  0  0  0  0  0
   -1.0306   -1.3908   -0.2121 H   0  0  0  0  0  0  0  0  0  0  0  0
   -0.9003    2.8018   -1.2302 H   0  0  0  0  0  0  0  0  0  0  0  0
    0.0459    1.6011    3.1040 H   0  0  0  0  0  0  0  0  0  0  0  0
   -0.7188    1.2552    1.5833 H   0  0  0  0  0  0  0  0  0  0  0  0
   -3.4156   -1.3093   -0.0777 H   0  0  0  0  0  0  0  0  0  0  0  0
   -3.3482    2.9091   -1.0978 H   0  0  0  0  0  0  0  0  0  0  0  0
   -5.3796    1.7957   -0.6972 H   0  0  0  0  0  0  0  0  0  0  0  0
   -7.3116    1.3292   -0.4576 H   0  0  0  0  0  0  0  0  0  0  0  0
   -9.6718    1.3630   -0.3100 H   0  0  0  0  0  0  0  0  0  0  0  0
   -7.4604   -2.2978    0.4278 H   0  0  0  0  0  0  0  0  0  0  0  0
   -9.5239   -3.4608    0.8467 H   0  0  0  0  0  0  0  0  0  0  0  0
  -11.6993   -2.2788    0.7059 H   0  0  0  0  0  0  0  0  0  0  0  0
  1 18  1  0  0  0  0
  1 26  1  0  0  0  0
  2 36  1  0  0  0  0
  3 20  2  0  0  0  0
  4 32  2  0  0  0  0
  5  6  1  0  0  0  0
  5 12  1  0  0  0  0
  5 16  1  0  0  0  0
  6 22  2  0  0  0  0
  7 23  2  0  0  0  0
  7 24  1  0  0  0  0
  8 20  1  0  0  0  0
  8 49  1  0  0  0  0
  8 50  1  0  0  0  0
  9 23  1  0  0  0  0
  9 53  1  0  0  0  0
  9 54  1  0  0  0  0
 10 29  1  0  0  0  0
 10 32  1  0  0  0  0
 10 57  1  0  0  0  0
 11 32  1  0  0  0  0
 11 33  1  0  0  0  0
 11 58  1  0  0  0  0
 12 14  1  0  0  0  0
 12 15  1  0  0  0  0
 12 20  1  0  0  0  0
 13 16  2  0  0  0  0
 13 17  1  0  0  0  0
 13 22  1  0  0  0  0
 14 39  1  0  0  0  0
 14 40  1  0  0  0  0
 14 41  1  0  0  0  0
 15 42  1  0  0  0  0
 15 43  1  0  0  0  0
 15 44  1  0  0  0  0
 16 45  1  0  0  0  0
 17 18  1  0  0  0  0
 17 24  2  0  0  0  0
 18 19  2  0  0  0  0
 19 21  1  0  0  0  0
 19 23  1  0  0  0  0
 21 25  1  0  0  0  0
 21 26  2  0  0  0  0
 22 46  1  0  0  0  0
 24 47  1  0  0  0  0
 25 27  2  0  0  0  0
 25 28  1  0  0  0  0
 26 48  1  0  0  0  0
 27 30  1  0  0  0  0
 27 51  1  0  0  0  0
 28 31  2  0  0  0  0
 28 52  1  0  0  0  0
 29 30  2  0  0  0  0
 29 31  1  0  0  0  0
 30 55  1  0  0  0  0
 31 56  1  0  0  0  0
 33 34  2  0  0  0  0
 33 35  1  0  0  0  0
 34 36  1  0  0  0  0
 34 59  1  0  0  0  0
 35 37  2  0  0  0  0
 35 60  1  0  0  0  0
 36 38  2  0  0  0  0
 37 38  1  0  0  0  0
 37 61  1  0  0  0  0
 38 62  1  0  0  0  0
M  END
> <PUBCHEM_COMPOUND_CID>
49830372

> <PUBCHEM_CONFORMER_RMSD>
1

> <PUBCHEM_CONFORMER_DIVERSEORDER>
1
48
59
55
29
13
37
35
47
19
38
41
50
18
27
39
4
54
43
49
17
53
15
61
26
51
52
6
8
45
24
57
34
10
60
28
46
22
32
33
20
23
9
56
40
44
21
58
30
7
25
36
3
2
11
14
42
16
12
31
5

> <PUBCHEM_MMFF94_PARTIAL_CHARGES>
53
1 -0.08
10 -0.55
11 -0.55
12 0.32
13 -0.05
16 -0.3
17 0.05
18 0.04
2 -0.19
20 0.57
21 -0.05
22 0.14
23 0.41
24 0.16
25 0.05
26 -0.11
27 -0.15
28 -0.15
29 0.12
3 -0.57
30 -0.15
31 -0.15
32 0.69
33 0.12
34 -0.15
35 -0.15
36 0.19
37 -0.15
38 -0.15
4 -0.57
45 0.15
46 0.15
47 0.15
48 0.15
49 0.37
5 0.31
50 0.37
51 0.15
52 0.15
53 0.4
54 0.4
55 0.15
56 0.15
57 0.37
58 0.37
59 0.15
6 -0.71
60 0.15
61 0.15
62 0.15
7 -0.62
8 -0.8
9 -0.9

> <PUBCHEM_EFFECTIVE_ROTOR_COUNT>
8

> <PUBCHEM_PHARMACOPHORE_FEATURES>
14
1 10 donor
1 11 donor
1 3 acceptor
1 4 acceptor
1 6 acceptor
1 8 donor
1 9 donor
3 12 14 15 hydrophobe
3 7 9 23 cation
5 1 18 19 21 26 rings
5 5 6 13 16 22 rings
6 25 27 28 29 30 31 rings
6 33 34 35 36 37 38 rings
6 7 17 18 19 23 24 rings

> <PUBCHEM_HEAVY_ATOM_COUNT>
38

> <PUBCHEM_ATOM_DEF_STEREO_COUNT>
0

> <PUBCHEM_ATOM_UDEF_STEREO_COUNT>
0

> <PUBCHEM_BOND_DEF_STEREO_COUNT>
0

> <PUBCHEM_BOND_UDEF_STEREO_COUNT>
0

> <PUBCHEM_ISOTOPIC_ATOM_COUNT>
0

> <PUBCHEM_COMPONENT_COUNT>
1

> <PUBCHEM_CACTVS_TAUTO_COUNT>
12

> <PUBCHEM_CONFORMER_ID>
02F859E400000001

> <PUBCHEM_MMFF94_ENERGY>
119.8733

> <PUBCHEM_FEATURE_SELFOVERLAP>
71.161

> <PUBCHEM_SHAPE_FINGERPRINT>
10162869 55 15626220235404074157
10533779 47 17775573026246578663
11409948 35 18339641140349763750
11456790 92 17203611497430783555
11534866 41 18202849842318680718
11607047 74 17897172531822165724
12013929 2 18408601458251982529
12089408 11 18259707813494306285
12522641 33 11097849683588916289
12539745 222 18343586205751266569
12559415 141 18261685826228678691
12664476 115 16200432464637140625
12741549 16 17988924474640890097
13947947 74 14056715755900061941
14117953 113 14996285829139590199
14118638 360 14129325274963621733
14202775 3 18187370956694332435
14251764 46 10879995757328788573
14344974 52 9079107861560456221
15065858 18 18335135428251948709
15247644 1 18411138038923095419
15289351 153 17131835344653490689
15419008 145 16702311131278215121
15510794 2 18410014330155598311
15840311 113 17677053550656682476
16067689 302 18339361869055474390
16728433 110 18343579677311195152
16991971 28 17240488013224351125
1818759 1 17894631466002479843
20105231 36 18259700095000218803
2026 5 18338794499670291694
21057603 238 17983303625771438116
21095086 128 18259702298212745064
21362267 20 18337391647540782227
21792934 111 15626221325750553376
21792938 703 17531257170905421971
21895431 317 17676478399144310922
232437 2 18186239541768997063
23378982 100 17775007830167791289
23576562 1 13118587167820747902
24771293 8 8502386559156006999
24893992 56 17632576089436727743
249057 3 14490475322588597845
3178227 256 17203607103927327860
335352 9 15357698595466614804
439807 62 18413108368766284322
44426699 60 18408610284003373694
45377200 153 18041000700081309643
5381727 24 16343981438979906815
54039377 194 17749389287277163733
5937810 71 11026058164072629663
6081469 158 18272090504634851633
9663363 56 17132116853947890368
9937071 3 18344144782921214154

> <PUBCHEM_SHAPE_MULTIPOLES>
731.99
42.13
2.1
1.56
62.53
1.45
0.47
28.66
2.87
-1.64
-0.03
-2.73
-0.47
1.23

> <PUBCHEM_SHAPE_SELFOVERLAP>
1606.695

> <PUBCHEM_SHAPE_VOLUME>
401.7

> <PUBCHEM_COORDINATE_TYPE>
2
5
10

$$$$
18451073
  -OEChem-05102415013D

 52 56  0     0  0  0  0  0  0999 V2000
   -4.5643    1.9401    0.1294 S   0  0  0  0  0  0  0  0  0  0  0  0
    4.0572    0.3233   -1.1921 O   0  0  0  0  0  0  0  0  0  0  0  0
   -4.2015   -2.5151   -0.1541 N   0  0  0  0  0  0  0  0  0  0  0  0
   -1.8688   -2.3015    0.1629 N   0  0  0  0  0  0  0  0  0  0  0  0
    3.2430    0.2037    1.0015 N   0  0  0  0  0  0  0  0  0  0  0  0
   -9.1303    0.3068    0.0375 N   0  0  0  0  0  0  0  0  0  0  0  0
   -8.8627    1.0594   -1.0434 N   0  0  0  0  0  0  0  0  0  0  0  0
    5.5149    0.0455    0.6153 N   0  0  0  0  0  0  0  0  0  0  0  0
   -3.2909   -0.3097    0.1265 C   0  0  0  0  0  0  0  0  0  0  0  0
   -2.3192    0.7267    0.3283 C   0  0  0  0  0  0  0  0  0  0  0  0
   -4.5776    0.2214    0.0004 C   0  0  0  0  0  0  0  0  0  0  0  0
   -5.6887   -0.6054   -0.2039 C   0  0  0  0  0  0  0  0  0  0  0  0
   -0.8936    0.5923    0.5018 C   0  0  0  0  0  0  0  0  0  0  0  0
   -3.1390   -1.7029    0.0430 C   0  0  0  0  0  0  0  0  0  0  0  0
   -2.8745    1.9841    0.3499 C   0  0  0  0  0  0  0  0  0  0  0  0
   -7.0131   -0.0797   -0.3364 C   0  0  0  0  0  0  0  0  0  0  0  0
   -5.4244   -1.9620   -0.2704 C   0  0  0  0  0  0  0  0  0  0  0  0
   -0.0516    0.6166   -0.6100 C   0  0  0  0  0  0  0  0  0  0  0  0
   -0.3568    0.4387    1.7800 C   0  0  0  0  0  0  0  0  0  0  0  0
    1.8641    0.3341    0.8349 C   0  0  0  0  0  0  0  0  0  0  0  0
    1.3272    0.4876   -0.4435 C   0  0  0  0  0  0  0  0  0  0  0  0
    1.0219    0.3097    1.9466 C   0  0  0  0  0  0  0  0  0  0  0  0
   -8.0561   -0.3950    0.5000 C   0  0  0  0  0  0  0  0  0  0  0  0
   -7.5679    0.8192   -1.2671 C   0  0  0  0  0  0  0  0  0  0  0  0
    4.2567    0.2032    0.0124 C   0  0  0  0  0  0  0  0  0  0  0  0
    6.7815   -0.0072   -0.0133 C   0  0  0  0  0  0  0  0  0  0  0  0
    9.1834   -0.2209    0.1331 C   0  0  0  0  0  0  0  0  0  0  0  0
    7.9352   -0.1701    0.7534 C   0  0  0  0  0  0  0  0  0  0  0  0
    6.8760    0.1049   -1.4005 C   0  0  0  0  0  0  0  0  0  0  0  0
    9.2780   -0.1087   -1.2541 C   0  0  0  0  0  0  0  0  0  0  0  0
    8.1243    0.0542   -2.0208 C   0  0  0  0  0  0  0  0  0  0  0  0
   10.4173   -0.3931    0.9528 C   0  0  0  0  0  0  0  0  0  0  0  0
   -2.3760    2.9350    0.4844 H   0  0  0  0  0  0  0  0  0  0  0  0
   -6.2217   -2.6836   -0.4301 H   0  0  0  0  0  0  0  0  0  0  0  0
   -0.4553    0.7342   -1.6130 H   0  0  0  0  0  0  0  0  0  0  0  0
   -0.9995    0.4165    2.6570 H   0  0  0  0  0  0  0  0  0  0  0  0
    1.9103    0.5156   -1.3527 H   0  0  0  0  0  0  0  0  0  0  0  0
    1.4264    0.1901    2.9485 H   0  0  0  0  0  0  0  0  0  0  0  0
   -8.1356   -1.0386    1.3652 H   0  0  0  0  0  0  0  0  0  0  0  0
   -7.0888    1.3091   -2.1033 H   0  0  0  0  0  0  0  0  0  0  0  0
   -1.8146   -3.3098    0.0960 H   0  0  0  0  0  0  0  0  0  0  0  0
   -1.0227   -1.7790    0.3116 H   0  0  0  0  0  0  0  0  0  0  0  0
    3.5586    0.0951    1.9623 H   0  0  0  0  0  0  0  0  0  0  0  0
  -10.0715    0.3194    0.4098 H   0  0  0  0  0  0  0  0  0  0  0  0
    5.5278   -0.0428    1.6282 H   0  0  0  0  0  0  0  0  0  0  0  0
    7.8629   -0.2554    1.8354 H   0  0  0  0  0  0  0  0  0  0  0  0
    6.0321    0.2332   -2.0630 H   0  0  0  0  0  0  0  0  0  0  0  0
   10.2449   -0.1445   -1.7491 H   0  0  0  0  0  0  0  0  0  0  0  0
    8.1994    0.1421   -3.1009 H   0  0  0  0  0  0  0  0  0  0  0  0
   10.7940    0.5829    1.2744 H   0  0  0  0  0  0  0  0  0  0  0  0
   10.2188   -1.0034    1.8405 H   0  0  0  0  0  0  0  0  0  0  0  0
   11.2033   -0.9018    0.3842 H   0  0  0  0  0  0  0  0  0  0  0  0
  1 11  1  0  0  0  0
  1 15  1  0  0  0  0
  2 25  2  0  0  0  0
  3 14  2  0  0  0  0
  3 17  1  0  0  0  0
  4 14  1  0  0  0  0
  4 41  1  0  0  0  0
  4 42  1  0  0  0  0
  5 20  1  0  0  0  0
  5 25  1  0  0  0  0
  5 43  1  0  0  0  0
  6  7  1  0  0  0  0
  6 23  1  0  0  0  0
  6 44  1  0  0  0  0
  7 24  2  0  0  0  0
  8 25  1  0  0  0  0
  8 26  1  0  0  0  0
  8 45  1  0  0  0  0
  9 10  1  0  0  0  0
  9 11  2  0  0  0  0
  9 14  1  0  0  0  0
 10 13  1  0  0  0  0
 10 15  2  0  0  0  0
 11 12  1  0  0  0  0
 12 16  1  0  0  0  0
 12 17  2  0  0  0  0
 13 18  2  0  0  0  0
 13 19  1  0  0  0  0
 15 33  1  0  0  0  0
 16 23  2  0  0  0  0
 16 24  1  0  0  0  0
 17 34  1  0  0  0  0
 18 21  1  0  0  0  0
 18 35  1  0  0  0  0
 19 22  2  0  0  0  0
 19 36  1  0  0  0  0
 20 21  2  0  0  0  0
 20 22  1  0  0  0  0
 21 37  1  0  0  0  0
 22 38  1  0  0  0  0
 23 39  1  0  0  0  0
 24 40  1  0  0  0  0
 26 28  1  0  0  0  0
 26 29  2  0  0  0  0
 27 28  2  0  0  0  0
 27 30  1  0  0  0  0
 27 32  1  0  0  0  0
 28 46  1  0  0  0  0
 29 31  1  0  0  0  0
 29 47  1  0  0  0  0
 30 31  2  0  0  0  0
 30 48  1  0  0  0  0
 31 49  1  0  0  0  0
 32 50  1  0  0  0  0
 32 51  1  0  0  0  0
 32 52  1  0  0  0  0
M  END
> <PUBCHEM_COMPOUND_CID>
18451073

> <PUBCHEM_CONFORMER_RMSD>
0.8

> <PUBCHEM_CONFORMER_DIVERSEORDER>
1
11
4
10
6
21
23
9
5
14
15
20
12
8
22
7
3
16
19
17
13
2
18

> <PUBCHEM_MMFF94_PARTIAL_CHARGES>
48
1 -0.08
10 -0.05
11 0.04
12 0.05
13 0.05
14 0.41
15 -0.11
16 -0.05
17 0.16
18 -0.15
19 -0.15
2 -0.57
20 0.12
21 -0.15
22 -0.15
23 -0.3
24 0.14
25 0.69
26 0.12
27 -0.14
28 -0.15
29 -0.15
3 -0.62
30 -0.15
31 -0.15
32 0.14
33 0.15
34 0.15
35 0.15
36 0.15
37 0.15
38 0.15
39 0.15
4 -0.9
40 0.15
41 0.4
42 0.4
43 0.37
44 0.27
45 0.37
46 0.15
47 0.15
48 0.15
49 0.15
5 -0.55
6 0.3
7 -0.71
8 -0.55

> <PUBCHEM_EFFECTIVE_ROTOR_COUNT>
6

> <PUBCHEM_PHARMACOPHORE_FEATURES>
12
1 2 acceptor
1 4 donor
1 5 donor
1 6 donor
1 7 acceptor
1 8 donor
3 3 4 14 cation
5 1 9 10 11 15 rings
5 6 7 16 23 24 rings
6 13 18 19 20 21 22 rings
6 26 27 28 29 30 31 rings
6 3 9 11 12 14 17 rings

> <PUBCHEM_HEAVY_ATOM_COUNT>
32

> <PUBCHEM_ATOM_DEF_STEREO_COUNT>
0

> <PUBCHEM_ATOM_UDEF_STEREO_COUNT>
0

> <PUBCHEM_BOND_DEF_STEREO_COUNT>
0

> <PUBCHEM_BOND_UDEF_STEREO_COUNT>
0

> <PUBCHEM_ISOTOPIC_ATOM_COUNT>
0

> <PUBCHEM_COMPONENT_COUNT>
1

> <PUBCHEM_CACTVS_TAUTO_COUNT>
6

> <PUBCHEM_CONFORMER_ID>
01198A8100000001

> <PUBCHEM_MMFF94_ENERGY>
99.7842

> <PUBCHEM_FEATURE_SELFOVERLAP>
61.012

> <PUBCHEM_SHAPE_FINGERPRINT>
10076449 9 18060701684865763065
10299344 5 18113336414731166130
10369192 42 14418126319061792667
106641 1 12679459794366150560
10674148 151 18411133653771074962
11315181 36 18333736827295679681
12082328 90 18130790010618257964
12089408 11 17822010930273874710
12236239 1 17676200278610345561
12522641 33 17022620858349850202
12643181 29 18131349739346246319
12741549 16 16343984706849146217
12758862 11 18201434817612186777
13885169 127 17346605144786127129
14040221 8 18341338820309568220
14118638 360 18338235955714077442
14150022 121 12463303474688758587
14251764 46 18410854360616540513
14294032 229 18189050902839562613
15065858 18 17632856430352064126
15183329 4 18187367636530767434
15247644 1 17346599677177111710
15419008 91 17987782065618116512
15510794 2 17632580427685772286
16728433 281 18044648699395502325
18603816 31 15913318127031380669
20105231 36 18261679255223335683
20609170 92 18263355894549079781
21150785 3 17749108889498629920
21360443 120 17967248676667211083
21362267 313 11815354675617754158
21792934 111 16415473857733414112
21792961 116 17775568606766993848
232437 2 16950282909888671211
23559900 14 18200586042687785777
23576562 1 14563385093308554022
249057 3 18409730685661324748
3092352 35 17022901263383844707
335352 9 18410005547332294463
4017518 198 17917990582103526551
4325135 7 18113617880917352310
4625314 4 18271523199399962712
504579 68 18113339717334176628
5283156 175 18187363221262208642
54039377 194 18114188587983046411
58083652 198 16486975141505246010
58902169 19 17676210217038328350
59521270 166 18335135354868343853
6081469 158 18411138022480944764
6126387 218 15482677862203976363
6691757 9 18411429406036852411
67123 10 15936411143478543425
9663363 56 17060616694645035744
9962374 69 15625927760604557776

> <PUBCHEM_SHAPE_MULTIPOLES>
626.64
34.14
1.54
1.35
45.15
0.58
0.07
2.3
8.4
-3.44
-0.04
2
-0.18
0.4

> <PUBCHEM_SHAPE_SELFOVERLAP>
1389.926

> <PUBCHEM_SHAPE_VOLUME>
337.5

> <PUBCHEM_COORDINATE_TYPE>
2
5
10

$$$$
49830353
  -OEChem-05102415013D

 65 69  0     1  0  0  0  0  0999 V2000
   -2.9149    1.1778    1.0123 S   0  0  0  0  0  0  0  0  0  0  0  0
   -9.8792    1.2701    1.2530 O   0  0  0  0  0  0  0  0  0  0  0  0
    5.8446   -0.2364    0.9936 O   0  0  0  0  0  0  0  0  0  0  0  0
   -7.3749   -0.5670    0.2577 N   0  0  0  0  0  0  0  0  0  0  0  0
   -7.0813   -0.5378    1.5689 N   0  0  0  0  0  0  0  0  0  0  0  0
   -2.3065   -2.6173   -1.2877 N   0  0  0  0  0  0  0  0  0  0  0  0
   -0.0112   -2.0846   -1.4748 N   0  0  0  0  0  0  0  0  0  0  0  0
   -9.0263    1.9938   -0.7825 N   0  0  0  0  0  0  0  0  0  0  0  0
    4.9027    0.8418   -0.8612 N   0  0  0  0  0  0  0  0  0  0  0  0
    7.1993    0.6678   -0.6845 N   0  0  0  0  0  0  0  0  0  0  0  0
   -1.5296   -0.5755   -0.2879 C   0  0  0  0  0  0  0  0  0  0  0  0
   -2.8318   -0.3091    0.1444 C   0  0  0  0  0  0  0  0  0  0  0  0
   -3.8843   -1.1897   -0.1325 C   0  0  0  0  0  0  0  0  0  0  0  0
   -5.2222   -0.9342    0.3022 C   0  0  0  0  0  0  0  0  0  0  0  0
   -0.6268    0.4654    0.1127 C   0  0  0  0  0  0  0  0  0  0  0  0
   -8.8058   -0.3484   -0.1993 C   0  0  1  0  0  0  0  0  0  0  0  0
   -6.2963   -0.8010   -0.5436 C   0  0  0  0  0  0  0  0  0  0  0  0
    0.7907    0.5624   -0.1364 C   0  0  0  0  0  0  0  0  0  0  0  0
   -1.3013   -1.7566   -1.0118 C   0  0  0  0  0  0  0  0  0  0  0  0
   -1.2464    1.4687    0.8193 C   0  0  0  0  0  0  0  0  0  0  0  0
   -3.5469   -2.3224   -0.8524 C   0  0  0  0  0  0  0  0  0  0  0  0
   -5.7650   -0.7628    1.5899 C   0  0  0  0  0  0  0  0  0  0  0  0
   -9.7302   -1.4420    0.3415 C   0  0  0  0  0  0  0  0  0  0  0  0
   -9.3048    1.0436    0.1902 C   0  0  0  0  0  0  0  0  0  0  0  0
    1.6977    0.0201    0.7741 C   0  0  0  0  0  0  0  0  0  0  0  0
    1.2544    1.1980   -1.2883 C   0  0  0  0  0  0  0  0  0  0  0  0
    3.5320    0.7492   -0.6189 C   0  0  0  0  0  0  0  0  0  0  0  0
    3.0683    0.1135    0.5329 C   0  0  0  0  0  0  0  0  0  0  0  0
    2.6250    1.2914   -1.5295 C   0  0  0  0  0  0  0  0  0  0  0  0
   -9.3867    3.3876   -0.6562 C   0  0  0  0  0  0  0  0  0  0  0  0
    5.9747    0.3605   -0.0704 C   0  0  0  0  0  0  0  0  0  0  0  0
    8.5035    0.3666   -0.2258 C   0  0  0  0  0  0  0  0  0  0  0  0
   11.0744   -0.2274    0.6797 C   0  0  0  0  0  0  0  0  0  0  0  0
    9.6140    0.7548   -0.9754 C   0  0  0  0  0  0  0  0  0  0  0  0
    8.6784   -0.3188    0.9765 C   0  0  0  0  0  0  0  0  0  0  0  0
   10.8994    0.4578   -0.5227 C   0  0  0  0  0  0  0  0  0  0  0  0
    9.9639   -0.6158    1.4291 C   0  0  0  0  0  0  0  0  0  0  0  0
   12.4492   -0.5442    1.1637 C   0  0  0  0  0  0  0  0  0  0  0  0
   -8.7677   -0.4344   -1.2926 H   0  0  0  0  0  0  0  0  0  0  0  0
   -6.3853   -0.8493   -1.6208 H   0  0  0  0  0  0  0  0  0  0  0  0
   -0.8067    2.3648    1.2369 H   0  0  0  0  0  0  0  0  0  0  0  0
   -4.2948   -3.0670   -1.1130 H   0  0  0  0  0  0  0  0  0  0  0  0
   -5.2619   -0.7952    2.5462 H   0  0  0  0  0  0  0  0  0  0  0  0
   -9.3808   -2.4332    0.0333 H   0  0  0  0  0  0  0  0  0  0  0  0
  -10.7500   -1.3048   -0.0335 H   0  0  0  0  0  0  0  0  0  0  0  0
   -9.7750   -1.4310    1.4362 H   0  0  0  0  0  0  0  0  0  0  0  0
    1.3513   -0.4796    1.6758 H   0  0  0  0  0  0  0  0  0  0  0  0
    0.5607    1.6248   -2.0088 H   0  0  0  0  0  0  0  0  0  0  0  0
    3.7045   -0.3312    1.2846 H   0  0  0  0  0  0  0  0  0  0  0  0
    2.9723    1.7889   -2.4315 H   0  0  0  0  0  0  0  0  0  0  0  0
    0.0990   -2.9478   -1.9912 H   0  0  0  0  0  0  0  0  0  0  0  0
    0.7965   -1.5068   -1.3174 H   0  0  0  0  0  0  0  0  0  0  0  0
   -8.5131    1.7184   -1.6145 H   0  0  0  0  0  0  0  0  0  0  0  0
    5.1633    1.3187   -1.7208 H   0  0  0  0  0  0  0  0  0  0  0  0
  -10.1565    3.5264    0.1066 H   0  0  0  0  0  0  0  0  0  0  0  0
   -8.4898    3.9482   -0.3815 H   0  0  0  0  0  0  0  0  0  0  0  0
   -9.7527    3.7371   -1.6245 H   0  0  0  0  0  0  0  0  0  0  0  0
    7.1538    1.1688   -1.5682 H   0  0  0  0  0  0  0  0  0  0  0  0
    9.4914    1.2897   -1.9137 H   0  0  0  0  0  0  0  0  0  0  0  0
    7.8720   -0.6526    1.6133 H   0  0  0  0  0  0  0  0  0  0  0  0
   11.7568    0.7672   -1.1145 H   0  0  0  0  0  0  0  0  0  0  0  0
   10.0889   -1.1485    2.3682 H   0  0  0  0  0  0  0  0  0  0  0  0
   13.1384   -0.6935    0.3255 H   0  0  0  0  0  0  0  0  0  0  0  0
   12.4579   -1.4672    1.7534 H   0  0  0  0  0  0  0  0  0  0  0  0
   12.8258    0.2734    1.7864 H   0  0  0  0  0  0  0  0  0  0  0  0
  1 12  1  0  0  0  0
  1 20  1  0  0  0  0
  2 24  2  0  0  0  0
  3 31  2  0  0  0  0
  4  5  1  0  0  0  0
  4 16  1  0  0  0  0
  4 17  1  0  0  0  0
  5 22  2  0  0  0  0
  6 19  2  0  0  0  0
  6 21  1  0  0  0  0
  7 19  1  0  0  0  0
  7 51  1  0  0  0  0
  7 52  1  0  0  0  0
  8 24  1  0  0  0  0
  8 30  1  0  0  0  0
  8 53  1  0  0  0  0
  9 27  1  0  0  0  0
  9 31  1  0  0  0  0
  9 54  1  0  0  0  0
 10 31  1  0  0  0  0
 10 32  1  0  0  0  0
 10 58  1  0  0  0  0
 11 12  2  0  0  0  0
 11 15  1  0  0  0  0
 11 19  1  0  0  0  0
 12 13  1  0  0  0  0
 13 14  1  0  0  0  0
 13 21  2  0  0  0  0
 14 17  2  0  0  0  0
 14 22  1  0  0  0  0
 15 18  1  0  0  0  0
 15 20  2  0  0  0  0
 16 23  1  0  0  0  0
 16 24  1  0  0  0  0
 16 39  1  0  0  0  0
 17 40  1  0  0  0  0
 18 25  2  0  0  0  0
 18 26  1  0  0  0  0
 20 41  1  0  0  0  0
 21 42  1  0  0  0  0
 22 43  1  0  0  0  0
 23 44  1  0  0  0  0
 23 45  1  0  0  0  0
 23 46  1  0  0  0  0
 25 28  1  0  0  0  0
 25 47  1  0  0  0  0
 26 29  2  0  0  0  0
 26 48  1  0  0  0  0
 27 28  2  0  0  0  0
 27 29  1  0  0  0  0
 28 49  1  0  0  0  0
 29 50  1  0  0  0  0
 30 55  1  0  0  0  0
 30 56  1  0  0  0  0
 30 57  1  0  0  0  0
 32 34  2  0  0  0  0
 32 35  1  0  0  0  0
 33 36  2  0  0  0  0
 33 37  1  0  0  0  0
 33 38  1  0  0  0  0
 34 36  1  0  0  0  0
 34 59  1  0  0  0  0
 35 37  2  0  0  0  0
 35 60  1  0  0  0  0
 36 61  1  0  0  0  0
 37 62  1  0  0  0  0
 38 63  1  0  0  0  0
 38 64  1  0  0  0  0
 38 65  1  0  0  0  0
M  END
> <PUBCHEM_COMPOUND_CID>
49830353

> <PUBCHEM_CONFORMER_RMSD>
1

> <PUBCHEM_CONFORMER_DIVERSEORDER>
1
38
72
64
87
93
21
78
74
76
23
66
83
30
49
68
89
65
29
42
16
46
82
44
18
55
34
11
26
75
58
94
31
80
56
81
85
77
19
52
37
12
50
8
47
14
57
53
10
90
36
15
20
84
51
62
86
5
39
27
45
73
32
79
33
60
25
22
43
71
92
54
70
67
88
95
41
13
48
6
61
35
63
17
91
3
59
7
9
4
24
28
40
69
2

> <PUBCHEM_MMFF94_PARTIAL_CHARGES>
53
1 -0.08
10 -0.55
12 0.04
13 0.05
14 -0.05
15 -0.05
16 0.32
17 -0.3
18 0.05
19 0.41
2 -0.57
20 -0.11
21 0.16
22 0.14
24 0.57
25 -0.15
26 -0.15
27 0.12
28 -0.15
29 -0.15
3 -0.57
30 0.3
31 0.69
32 0.12
33 -0.14
34 -0.15
35 -0.15
36 -0.15
37 -0.15
38 0.14
4 0.31
40 0.15
41 0.15
42 0.15
43 0.15
47 0.15
48 0.15
49 0.15
5 -0.71
50 0.15
51 0.4
52 0.4
53 0.37
54 0.37
58 0.37
59 0.15
6 -0.62
60 0.15
61 0.15
62 0.15
7 -0.9
8 -0.73
9 -0.55

> <PUBCHEM_EFFECTIVE_ROTOR_COUNT>
9

> <PUBCHEM_PHARMACOPHORE_FEATURES>
13
1 10 donor
1 2 acceptor
1 3 acceptor
1 5 acceptor
1 7 donor
1 8 donor
1 9 donor
3 6 7 19 cation
5 1 11 12 15 20 rings
5 4 5 14 17 22 rings
6 18 25 26 27 28 29 rings
6 32 33 34 35 36 37 rings
6 6 11 12 13 19 21 rings

> <PUBCHEM_HEAVY_ATOM_COUNT>
38

> <PUBCHEM_ATOM_DEF_STEREO_COUNT>
0

> <PUBCHEM_ATOM_UDEF_STEREO_COUNT>
1

> <PUBCHEM_BOND_DEF_STEREO_COUNT>
0

> <PUBCHEM_BOND_UDEF_STEREO_COUNT>
0

> <PUBCHEM_ISOTOPIC_ATOM_COUNT>
0

> <PUBCHEM_COMPONENT_COUNT>
1

> <PUBCHEM_CACTVS_TAUTO_COUNT>
12

> <PUBCHEM_CONFORMER_ID>
02F859D100000001

> <PUBCHEM_MMFF94_ENERGY>
109.5216

> <PUBCHEM_FEATURE_SELFOVERLAP>
66.087

> <PUBCHEM_SHAPE_FINGERPRINT>
10162869 55 12175620685834690568
10299344 5 18408885158084861158
10674148 151 18408884057254422507
11408170 108 18260829255953420698
12082328 90 16732975419639369470
12089408 11 18335985367418805662
12144603 126 18186518804805966866
12664476 115 16774076276755954536
12741549 16 18131068239011734800
12838862 33 17846778498698575118
13947934 56 18337108961150080924
14040221 8 18343872121550152624
14251764 46 18186802491448079298
14344974 52 9007049172364039374
15061470 23 18259983782523630564
15065858 18 16773798112945918502
15274700 256 18272650147221161104
15289351 153 17274823553968041697
15320294 125 18410290342134687478
15347591 1 18050288364804866053
15392192 104 10519990353470725884
16728433 110 17968096461506512076
17686467 74 8142086438150329487
20105231 36 16298105406035498394
20609170 92 18270402673209357949
21792934 111 16774076294210266664
21792961 116 17676199178365410581
21792965 68 17458337500365606685
232437 2 17530682122060554746
24771293 8 17203059512713705985
3092352 35 17967535705985772251
395649 100 14405176292922333069
4017518 198 16773800311616162863
44389302 135 18341888581932388034
4874694 18 16917071070408734494
54039377 194 17458343061498791814
59521270 166 18409446969191564837
6201320 215 18187922825452899181
6673363 416 8142090870250915999
6691757 9 17560810965476509351
9663363 56 17561365080908510721
9953998 17 17060058172950751870

> <PUBCHEM_SHAPE_MULTIPOLES>
739.27
45.15
2.02
1.34
61.97
0.41
0.06
6.84
10.58
-5.91
-0.73
0.41
-0.14
-1.21

> <PUBCHEM_SHAPE_SELFOVERLAP>
1610.824

> <PUBCHEM_SHAPE_VOLUME>
405.8

> <PUBCHEM_COORDINATE_TYPE>
2
5
10

$$$$
49830359
  -OEChem-05102415013D

 52 56  0     0  0  0  0  0  0999 V2000
    4.2604   -1.8245    0.6180 S   0  0  0  0  0  0  0  0  0  0  0  0
  -10.6171   -0.0307   -0.8218 F   0  0  0  0  0  0  0  0  0  0  0  0
   -4.3436    0.2581    1.2205 O   0  0  0  0  0  0  0  0  0  0  0  0
    3.8793    2.2711   -1.1553 N   0  0  0  0  0  0  0  0  0  0  0  0
    8.6862    0.1262    0.9846 N   0  0  0  0  0  0  0  0  0  0  0  0
    1.5418    1.9471   -1.2910 N   0  0  0  0  0  0  0  0  0  0  0  0
    8.6947   -0.9451    0.1731 N   0  0  0  0  0  0  0  0  0  0  0  0
   -3.5710   -0.6423   -0.7998 N   0  0  0  0  0  0  0  0  0  0  0  0
   -5.8359   -0.3143   -0.4865 N   0  0  0  0  0  0  0  0  0  0  0  0
    2.9753    0.1843   -0.3806 C   0  0  0  0  0  0  0  0  0  0  0  0
    4.2671   -0.2362   -0.0516 C   0  0  0  0  0  0  0  0  0  0  0  0
    2.0055   -0.8262   -0.0681 C   0  0  0  0  0  0  0  0  0  0  0  0
    5.3775    0.5881   -0.2693 C   0  0  0  0  0  0  0  0  0  0  0  0
    0.5760   -0.7797   -0.2553 C   0  0  0  0  0  0  0  0  0  0  0  0
    2.8175    1.4629   -0.9386 C   0  0  0  0  0  0  0  0  0  0  0  0
    6.7070    0.1750    0.0620 C   0  0  0  0  0  0  0  0  0  0  0  0
    2.5670   -1.9572    0.4751 C   0  0  0  0  0  0  0  0  0  0  0  0
    5.1073    1.8268   -0.8239 C   0  0  0  0  0  0  0  0  0  0  0  0
   -0.2450   -0.2901    0.7607 C   0  0  0  0  0  0  0  0  0  0  0  0
    0.0145   -1.2235   -1.4525 C   0  0  0  0  0  0  0  0  0  0  0  0
    7.5188    0.8309    0.9550 C   0  0  0  0  0  0  0  0  0  0  0  0
    7.4830   -0.9101   -0.3877 C   0  0  0  0  0  0  0  0  0  0  0  0
   -2.1885   -0.6887   -0.6178 C   0  0  0  0  0  0  0  0  0  0  0  0
   -1.6272   -0.2447    0.5796 C   0  0  0  0  0  0  0  0  0  0  0  0
   -1.3677   -1.1782   -1.6338 C   0  0  0  0  0  0  0  0  0  0  0  0
    9.8507    0.4312    1.7809 C   0  0  0  0  0  0  0  0  0  0  0  0
   -4.5660   -0.1848    0.0983 C   0  0  0  0  0  0  0  0  0  0  0  0
   -7.0907    0.0260    0.0718 C   0  0  0  0  0  0  0  0  0  0  0  0
   -8.2582   -0.1741   -0.6647 C   0  0  0  0  0  0  0  0  0  0  0  0
   -7.1603    0.5625    1.3575 C   0  0  0  0  0  0  0  0  0  0  0  0
   -9.4954    0.1622   -0.1154 C   0  0  0  0  0  0  0  0  0  0  0  0
   -8.3976    0.8990    1.9066 C   0  0  0  0  0  0  0  0  0  0  0  0
   -9.5652    0.6989    1.1701 C   0  0  0  0  0  0  0  0  0  0  0  0
    2.0711   -2.8628    0.7990 H   0  0  0  0  0  0  0  0  0  0  0  0
    5.9045    2.5356   -1.0332 H   0  0  0  0  0  0  0  0  0  0  0  0
    0.1782    0.0609    1.6992 H   0  0  0  0  0  0  0  0  0  0  0  0
    0.6404   -1.6067   -2.2551 H   0  0  0  0  0  0  0  0  0  0  0  0
    7.3700    1.7167    1.5586 H   0  0  0  0  0  0  0  0  0  0  0  0
    7.2230   -1.6772   -1.1037 H   0  0  0  0  0  0  0  0  0  0  0  0
   -2.1931    0.1477    1.4122 H   0  0  0  0  0  0  0  0  0  0  0  0
   -1.7916   -1.5269   -2.5722 H   0  0  0  0  0  0  0  0  0  0  0  0
    1.4834    2.8755   -1.6891 H   0  0  0  0  0  0  0  0  0  0  0  0
    0.6956    1.4185   -1.1664 H   0  0  0  0  0  0  0  0  0  0  0  0
   -3.9050   -0.9828   -1.6980 H   0  0  0  0  0  0  0  0  0  0  0  0
   10.0474   -0.4171    2.4412 H   0  0  0  0  0  0  0  0  0  0  0  0
   10.6943    0.5980    1.1065 H   0  0  0  0  0  0  0  0  0  0  0  0
    9.6630    1.3300    2.3734 H   0  0  0  0  0  0  0  0  0  0  0  0
   -5.8681   -0.6991   -1.4272 H   0  0  0  0  0  0  0  0  0  0  0  0
   -8.2184   -0.5913   -1.6675 H   0  0  0  0  0  0  0  0  0  0  0  0
   -6.3041    0.7476    1.9901 H   0  0  0  0  0  0  0  0  0  0  0  0
   -8.4534    1.3169    2.9077 H   0  0  0  0  0  0  0  0  0  0  0  0
  -10.5286    0.9605    1.5975 H   0  0  0  0  0  0  0  0  0  0  0  0
  1 11  1  0  0  0  0
  1 17  1  0  0  0  0
  2 31  1  0  0  0  0
  3 27  2  0  0  0  0
  4 15  2  0  0  0  0
  4 18  1  0  0  0  0
  5  7  1  0  0  0  0
  5 21  1  0  0  0  0
  5 26  1  0  0  0  0
  6 15  1  0  0  0  0
  6 42  1  0  0  0  0
  6 43  1  0  0  0  0
  7 22  2  0  0  0  0
  8 23  1  0  0  0  0
  8 27  1  0  0  0  0
  8 44  1  0  0  0  0
  9 27  1  0  0  0  0
  9 28  1  0  0  0  0
  9 48  1  0  0  0  0
 10 11  2  0  0  0  0
 10 12  1  0  0  0  0
 10 15  1  0  0  0  0
 11 13  1  0  0  0  0
 12 14  1  0  0  0  0
 12 17  2  0  0  0  0
 13 16  1  0  0  0  0
 13 18  2  0  0  0  0
 14 19  2  0  0  0  0
 14 20  1  0  0  0  0
 16 21  2  0  0  0  0
 16 22  1  0  0  0  0
 17 34  1  0  0  0  0
 18 35  1  0  0  0  0
 19 24  1  0  0  0  0
 19 36  1  0  0  0  0
 20 25  2  0  0  0  0
 20 37  1  0  0  0  0
 21 38  1  0  0  0  0
 22 39  1  0  0  0  0
 23 24  2  0  0  0  0
 23 25  1  0  0  0  0
 24 40  1  0  0  0  0
 25 41  1  0  0  0  0
 26 45  1  0  0  0  0
 26 46  1  0  0  0  0
 26 47  1  0  0  0  0
 28 29  2  0  0  0  0
 28 30  1  0  0  0  0
 29 31  1  0  0  0  0
 29 49  1  0  0  0  0
 30 32  2  0  0  0  0
 30 50  1  0  0  0  0
 31 33  2  0  0  0  0
 32 33  1  0  0  0  0
 32 51  1  0  0  0  0
 33 52  1  0  0  0  0
M  END
> <PUBCHEM_COMPOUND_CID>
49830359

> <PUBCHEM_CONFORMER_RMSD>
0.8

> <PUBCHEM_CONFORMER_DIVERSEORDER>
1
44
10
20
15
24
48
21
31
26
36
18
38
42
37
7
30
5
43
12
6
22
47
11
19
8
45
41
46
17
25
29
16
40
4
3
23
34
32
39
33
13
9
28
14
27
2
35

> <PUBCHEM_MMFF94_PARTIAL_CHARGES>
48
1 -0.08
11 0.04
12 -0.05
13 0.05
14 0.05
15 0.41
16 -0.05
17 -0.11
18 0.16
19 -0.15
2 -0.19
20 -0.15
21 -0.3
22 0.14
23 0.12
24 -0.15
25 -0.15
26 0.26
27 0.69
28 0.12
29 -0.15
3 -0.57
30 -0.15
31 0.19
32 -0.15
33 -0.15
34 0.15
35 0.15
36 0.15
37 0.15
38 0.15
39 0.15
4 -0.62
40 0.15
41 0.15
42 0.4
43 0.4
44 0.37
48 0.37
49 0.15
5 0.31
50 0.15
51 0.15
52 0.15
6 -0.9
7 -0.71
8 -0.55
9 -0.55

> <PUBCHEM_EFFECTIVE_ROTOR_COUNT>
6

> <PUBCHEM_PHARMACOPHORE_FEATURES>
11
1 3 acceptor
1 6 donor
1 7 acceptor
1 8 donor
1 9 donor
3 4 6 15 cation
5 1 10 11 12 17 rings
5 5 7 16 21 22 rings
6 14 19 20 23 24 25 rings
6 28 29 30 31 32 33 rings
6 4 10 11 13 15 18 rings

> <PUBCHEM_HEAVY_ATOM_COUNT>
33

> <PUBCHEM_ATOM_DEF_STEREO_COUNT>
0

> <PUBCHEM_ATOM_UDEF_STEREO_COUNT>
0

> <PUBCHEM_BOND_DEF_STEREO_COUNT>
0

> <PUBCHEM_BOND_UDEF_STEREO_COUNT>
0

> <PUBCHEM_ISOTOPIC_ATOM_COUNT>
0

> <PUBCHEM_COMPONENT_COUNT>
1

> <PUBCHEM_CACTVS_TAUTO_COUNT>
6

> <PUBCHEM_CONFORMER_ID>
02F859D700000001

> <PUBCHEM_MMFF94_ENERGY>
99.587

> <PUBCHEM_FEATURE_SELFOVERLAP>
55.936

> <PUBCHEM_SHAPE_FINGERPRINT>
10162869 55 18335978744890724935
10533779 47 17749678397999215771
10904742 90 17988924470160942247
11135609 127 16271918372737269720
11409948 35 15864335905957538194
11443803 9 17704352169469069855
11456790 92 18040154019702489889
11607047 141 17489304128644598098
12013929 2 14923937943327174157
12089408 11 17561083588203304515
12236239 1 18201717392918442470
12539745 222 16081079342874533173
12664476 115 18186796981095268189
12741549 16 16877938339454028732
14150022 121 17095518453686224797
14251764 46 17131833166129163702
14294032 229 17560798789486513221
14344974 52 16056588898487352987
15131766 46 16809003517368625044
15183329 4 17704079495592063457
15247644 1 14273738452012598001
15301273 46 15863788404969753151
15419008 145 18259982635108395293
15419008 47 16732979830592057725
15510794 2 16660364775674335611
155225 1 17489588953098889121
15840311 113 18131633400930555560
16728433 281 13541365774486451099
1818759 1 12035449437214520817
19841028 212 11530747198406178432
20105231 36 14129053712702683360
20812841 46 18334572443769854408
21057603 43 17916865713458527246
21095086 128 13334731324283160216
21150785 3 14405187266151777515
21267235 1 13334735734602825486
21360443 126 13110956553071751604
21362267 20 14418139534560431113
21362267 313 17345761759048442842
21403212 168 18409448089619061118
21591340 7 18202843270975817783
21792934 111 18333726940882669108
22956985 138 12758800484296268696
24893992 56 17603870035194383371
249057 3 18260269667946204111
3092352 35 18273213102113095311
3178227 256 17894630366722785194
395649 100 17775278405519622783
397830 11 17386585690449642193
45377200 153 12973895826935948761
4874694 18 18186519904761466723
5028188 123 14549016582169996673
54039377 194 12179847204216068123
6081469 158 16877943832337079548
67123 10 17132113541931843739

> <PUBCHEM_SHAPE_MULTIPOLES>
639.94
35.28
1.56
1.41
42.87
0.06
-0.05
8.95
-11.5
-1.75
0.28
-0.11
0.36
-1.93

> <PUBCHEM_SHAPE_SELFOVERLAP>
1418.11

> <PUBCHEM_SHAPE_VOLUME>
348.2

> <PUBCHEM_COORDINATE_TYPE>
2
5
10

$$$$
11442914
  -OEChem-05102415013D

 56 60  0     0  0  0  0  0  0999 V2000
   -3.5248    1.4142    0.7305 S   0  0  0  0  0  0  0  0  0  0  0  0
    5.1340    0.7228   -1.0498 O   0  0  0  0  0  0  0  0  0  0  0  0
   -2.9494   -2.7235   -0.8850 N   0  0  0  0  0  0  0  0  0  0  0  0
    4.3675   -0.0922    1.0088 N   0  0  0  0  0  0  0  0  0  0  0  0
   -0.6240   -2.4915   -0.5301 N   0  0  0  0  0  0  0  0  0  0  0  0
    6.6368   -0.0081    0.5862 N   0  0  0  0  0  0  0  0  0  0  0  0
  -10.6013    0.1413    0.6363 N   0  0  0  0  0  0  0  0  0  0  0  0
   -1.2193    0.3175    0.5447 C   0  0  0  0  0  0  0  0  0  0  0  0
   -2.1428   -0.6599    0.0439 C   0  0  0  0  0  0  0  0  0  0  0  0
    0.2143    0.2125    0.6636 C   0  0  0  0  0  0  0  0  0  0  0  0
   -3.4562   -0.1842    0.0892 C   0  0  0  0  0  0  0  0  0  0  0  0
   -1.8351    1.4789    0.9468 C   0  0  0  0  0  0  0  0  0  0  0  0
   -1.9244   -1.9532   -0.4567 C   0  0  0  0  0  0  0  0  0  0  0  0
    0.7756   -0.2898    1.8337 C   0  0  0  0  0  0  0  0  0  0  0  0
    1.0268    0.6143   -0.3926 C   0  0  0  0  0  0  0  0  0  0  0  0
   -4.5293   -0.9687   -0.3502 C   0  0  0  0  0  0  0  0  0  0  0  0
    2.9808    0.0099    0.8932 C   0  0  0  0  0  0  0  0  0  0  0  0
    2.1620   -0.3913    1.9488 C   0  0  0  0  0  0  0  0  0  0  0  0
    2.4131    0.5126   -0.2775 C   0  0  0  0  0  0  0  0  0  0  0  0
   -4.2002   -2.2264   -0.8240 C   0  0  0  0  0  0  0  0  0  0  0  0
    7.8925    0.1966   -0.0329 C   0  0  0  0  0  0  0  0  0  0  0  0
    5.3614    0.2573    0.0622 C   0  0  0  0  0  0  0  0  0  0  0  0
   -5.8711   -0.4954   -0.3056 C   0  0  0  0  0  0  0  0  0  0  0  0
   10.2868    0.0705    0.0442 C   0  0  0  0  0  0  0  0  0  0  0  0
    9.0490   -0.1318    0.6547 C   0  0  0  0  0  0  0  0  0  0  0  0
    7.9387    0.7217   -1.3138 C   0  0  0  0  0  0  0  0  0  0  0  0
   10.3504    0.5984   -1.2454 C   0  0  0  0  0  0  0  0  0  0  0  0
    9.1765    0.9240   -1.9245 C   0  0  0  0  0  0  0  0  0  0  0  0
   11.5423   -0.2779    0.7696 C   0  0  0  0  0  0  0  0  0  0  0  0
   -7.0099   -0.0935   -0.2678 C   0  0  0  0  0  0  0  0  0  0  0  0
   -8.3581    0.3824   -0.2229 C   0  0  0  0  0  0  0  0  0  0  0  0
   -8.7445    1.4990   -0.9521 C   0  0  0  0  0  0  0  0  0  0  0  0
   -9.3122   -0.2566    0.5488 C   0  0  0  0  0  0  0  0  0  0  0  0
  -10.0622    1.9388   -0.8878 C   0  0  0  0  0  0  0  0  0  0  0  0
  -10.9436    1.2314   -0.0863 C   0  0  0  0  0  0  0  0  0  0  0  0
   -1.3813    2.3702    1.3598 H   0  0  0  0  0  0  0  0  0  0  0  0
    0.1509   -0.6079    2.6648 H   0  0  0  0  0  0  0  0  0  0  0  0
    0.5981    1.0068   -1.3116 H   0  0  0  0  0  0  0  0  0  0  0  0
    2.5907   -0.7855    2.8667 H   0  0  0  0  0  0  0  0  0  0  0  0
    2.9771    0.8430   -1.1380 H   0  0  0  0  0  0  0  0  0  0  0  0
   -4.9675   -2.9060   -1.1855 H   0  0  0  0  0  0  0  0  0  0  0  0
    4.7058   -0.4678    1.8912 H   0  0  0  0  0  0  0  0  0  0  0  0
    0.1984   -1.9935   -0.2359 H   0  0  0  0  0  0  0  0  0  0  0  0
   -0.5217   -3.4280   -0.8995 H   0  0  0  0  0  0  0  0  0  0  0  0
    6.6714   -0.3956    1.5257 H   0  0  0  0  0  0  0  0  0  0  0  0
    8.9978   -0.5448    1.6590 H   0  0  0  0  0  0  0  0  0  0  0  0
    7.0797    0.9992   -1.9058 H   0  0  0  0  0  0  0  0  0  0  0  0
   11.3085    0.7588   -1.7327 H   0  0  0  0  0  0  0  0  0  0  0  0
    9.2275    1.3346   -2.9288 H   0  0  0  0  0  0  0  0  0  0  0  0
   11.4280   -0.1301    1.8489 H   0  0  0  0  0  0  0  0  0  0  0  0
   11.8053   -1.3240    0.5842 H   0  0  0  0  0  0  0  0  0  0  0  0
   12.3755    0.3553    0.4465 H   0  0  0  0  0  0  0  0  0  0  0  0
   -8.0330    2.0368   -1.5735 H   0  0  0  0  0  0  0  0  0  0  0  0
   -9.0710   -1.1344    1.1413 H   0  0  0  0  0  0  0  0  0  0  0  0
  -10.3888    2.8078   -1.4474 H   0  0  0  0  0  0  0  0  0  0  0  0
  -11.9823    1.5336   -0.0020 H   0  0  0  0  0  0  0  0  0  0  0  0
  1 11  1  0  0  0  0
  1 12  1  0  0  0  0
  2 22  2  0  0  0  0
  3 13  2  0  0  0  0
  3 20  1  0  0  0  0
  4 17  1  0  0  0  0
  4 22  1  0  0  0  0
  4 42  1  0  0  0  0
  5 13  1  0  0  0  0
  5 43  1  0  0  0  0
  5 44  1  0  0  0  0
  6 21  1  0  0  0  0
  6 22  1  0  0  0  0
  6 45  1  0  0  0  0
  7 33  1  0  0  0  0
  7 35  2  0  0  0  0
  8  9  1  0  0  0  0
  8 10  1  0  0  0  0
  8 12  2  0  0  0  0
  9 11  2  0  0  0  0
  9 13  1  0  0  0  0
 10 14  2  0  0  0  0
 10 15  1  0  0  0  0
 11 16  1  0  0  0  0
 12 36  1  0  0  0  0
 14 18  1  0  0  0  0
 14 37  1  0  0  0  0
 15 19  2  0  0  0  0
 15 38  1  0  0  0  0
 16 20  2  0  0  0  0
 16 23  1  0  0  0  0
 17 18  2  0  0  0  0
 17 19  1  0  0  0  0
 18 39  1  0  0  0  0
 19 40  1  0  0  0  0
 20 41  1  0  0  0  0
 21 25  1  0  0  0  0
 21 26  2  0  0  0  0
 23 30  3  0  0  0  0
 24 25  2  0  0  0  0
 24 27  1  0  0  0  0
 24 29  1  0  0  0  0
 25 46  1  0  0  0  0
 26 28  1  0  0  0  0
 26 47  1  0  0  0  0
 27 28  2  0  0  0  0
 27 48  1  0  0  0  0
 28 49  1  0  0  0  0
 29 50  1  0  0  0  0
 29 51  1  0  0  0  0
 29 52  1  0  0  0  0
 30 31  1  0  0  0  0
 31 32  1  0  0  0  0
 31 33  2  0  0  0  0
 32 34  2  0  0  0  0
 32 53  1  0  0  0  0
 33 54  1  0  0  0  0
 34 35  1  0  0  0  0
 34 55  1  0  0  0  0
 35 56  1  0  0  0  0
M  END
> <PUBCHEM_COMPOUND_CID>
11442914

> <PUBCHEM_CONFORMER_RMSD>
0.8

> <PUBCHEM_CONFORMER_DIVERSEORDER>
1
9
7
16
4
6
14
11
12
15
8
5
3
2
13
10

> <PUBCHEM_MMFF94_PARTIAL_CHARGES>
52
1 -0.08
10 0.05
11 0.04
12 -0.11
13 0.41
14 -0.15
15 -0.15
16 0.07
17 0.12
18 -0.15
19 -0.15
2 -0.57
20 0.16
21 0.12
22 0.69
23 -0.07
24 -0.14
25 -0.15
26 -0.15
27 -0.15
28 -0.15
29 0.14
3 -0.62
30 -0.07
31 0.07
32 -0.15
33 0.16
34 -0.15
35 0.16
36 0.15
37 0.15
38 0.15
39 0.15
4 -0.55
40 0.15
41 0.15
42 0.37
43 0.4
44 0.4
45 0.37
46 0.15
47 0.15
48 0.15
49 0.15
5 -0.9
53 0.15
54 0.15
55 0.15
56 0.15
6 -0.55
7 -0.62
8 -0.05

> <PUBCHEM_EFFECTIVE_ROTOR_COUNT>
5

> <PUBCHEM_PHARMACOPHORE_FEATURES>
11
1 2 acceptor
1 4 donor
1 5 donor
1 6 donor
1 7 acceptor
3 3 5 13 cation
5 1 8 9 11 12 rings
6 10 14 15 17 18 19 rings
6 21 24 25 26 27 28 rings
6 3 9 11 13 16 20 rings
6 7 31 32 33 34 35 rings

> <PUBCHEM_HEAVY_ATOM_COUNT>
35

> <PUBCHEM_ATOM_DEF_STEREO_COUNT>
0

> <PUBCHEM_ATOM_UDEF_STEREO_COUNT>
0

> <PUBCHEM_BOND_DEF_STEREO_COUNT>
0

> <PUBCHEM_BOND_UDEF_STEREO_COUNT>
0

> <PUBCHEM_ISOTOPIC_ATOM_COUNT>
0

> <PUBCHEM_COMPONENT_COUNT>
1

> <PUBCHEM_CACTVS_TAUTO_COUNT>
6

> <PUBCHEM_CONFORMER_ID>
00AE9AE200000001

> <PUBCHEM_MMFF94_ENERGY>
106.5449

> <PUBCHEM_FEATURE_SELFOVERLAP>
55.936

> <PUBCHEM_SHAPE_FINGERPRINT>
10165383 225 18341892983492312943
106641 1 12324240564006046291
10674148 151 18202561795550773003
10883706 142 14273455876996321929
11211813 89 18060137648438167905
11409948 35 17988083280222223982
11410812 94 13470418743264404523
12144603 126 18040714761994552992
12522641 33 18260269633961376386
12539745 222 12031797946187823731
12559415 86 18261679159921580612
12664476 115 14418134028253353900
12741549 16 15626223515835702560
12758862 11 17703503384788027627
13740195 50 10881405335293110293
13947947 74 17989490710043033235
14040221 8 18202571674419327864
14117953 113 18060420226773535461
14251764 46 17167863062802212864
15061470 23 17748825211135631660
15065858 18 16702016504410127014
15183329 4 17749104522719702402
15219648 73 14261361211243189894
15247644 1 14549019887886788348
15392192 104 9583524209766203996
15510794 2 16415765211303748620
15890870 6 18412262831007469831
16087824 20 18341048537319875345
16664035 7 10015869786203960267
16728433 110 15554441917588237448
20609170 92 18269272371008444821
21057603 130 13984666980553463147
21360443 89 7853564709372416777
21792934 111 16343978131696833578
232437 2 16515683342740276488
23399689 5 18334295345618792573
249057 3 18343302600222252576
3092352 35 17675925417857170051
335352 9 18272928333017014575
3991529 128 18333736810885956617
4017518 198 17203890773590539175
4625314 4 17489018378887609024
58083652 198 15482390958573896154
59521270 166 18411416185974547221
59521660 218 18338237047364576171
59682541 35 12685092588087519351
6691757 9 17988654003981717011
67123 10 16805041821848112729
9663363 56 16630805513778924810

> <PUBCHEM_SHAPE_MULTIPOLES>
693.36
43.99
1.68
1.34
25.38
0.8
-0.09
-15.7
8.87
-3.41
0.59
1.81
-0.08
-1.24

> <PUBCHEM_SHAPE_SELFOVERLAP>
1527.798

> <PUBCHEM_SHAPE_VOLUME>
373.3

> <PUBCHEM_COORDINATE_TYPE>
2
5
10

$$$$
18451223
  -OEChem-05102415013D

 62 66  0     0  0  0  0  0  0999 V2000
   -3.7297   -0.7677   -1.0440 S   0  0  0  0  0  0  0  0  0  0  0  0
    4.9149   -0.8940    0.9425 O   0  0  0  0  0  0  0  0  0  0  0  0
   -8.7657   -0.9432    0.4698 N   0  0  0  0  0  0  0  0  0  0  0  0
   -2.9436    3.0471    1.1674 N   0  0  0  0  0  0  0  0  0  0  0  0
   -0.6289    2.7232    0.8150 N   0  0  0  0  0  0  0  0  0  0  0  0
    4.2498    0.2597   -0.9851 N   0  0  0  0  0  0  0  0  0  0  0  0
    6.4988   -0.0293   -0.5449 N   0  0  0  0  0  0  0  0  0  0  0  0
   -8.6627   -3.2498    0.1257 C   0  0  0  0  0  0  0  0  0  0  0  0
  -10.0825   -2.8706    0.5356 C   0  0  0  0  0  0  0  0  0  0  0  0
   -8.0030   -1.9403   -0.2805 C   0  0  0  0  0  0  0  0  0  0  0  0
  -10.1617   -1.3627    0.3484 C   0  0  0  0  0  0  0  0  0  0  0  0
   -8.5471    0.4091   -0.0218 C   0  0  0  0  0  0  0  0  0  0  0  0
   -7.1396    0.7942    0.1158 C   0  0  0  0  0  0  0  0  0  0  0  0
   -2.2415    1.0936   -0.0420 C   0  0  0  0  0  0  0  0  0  0  0  0
   -3.5798    0.7132   -0.1749 C   0  0  0  0  0  0  0  0  0  0  0  0
   -4.6135    1.4915    0.3594 C   0  0  0  0  0  0  0  0  0  0  0  0
   -1.3672    0.1430   -0.6674 C   0  0  0  0  0  0  0  0  0  0  0  0
   -5.9868    1.1133    0.2266 C   0  0  0  0  0  0  0  0  0  0  0  0
    0.0724    0.1738   -0.7494 C   0  0  0  0  0  0  0  0  0  0  0  0
   -1.9572    2.2843    0.6454 C   0  0  0  0  0  0  0  0  0  0  0  0
   -2.0423   -0.9066   -1.2438 C   0  0  0  0  0  0  0  0  0  0  0  0
   -4.2203    2.6439    1.0166 C   0  0  0  0  0  0  0  0  0  0  0  0
    0.6975    0.8040   -1.8254 C   0  0  0  0  0  0  0  0  0  0  0  0
    0.8397   -0.4282    0.2478 C   0  0  0  0  0  0  0  0  0  0  0  0
    2.8571    0.2302   -0.9068 C   0  0  0  0  0  0  0  0  0  0  0  0
    2.0898    0.8324   -1.9042 C   0  0  0  0  0  0  0  0  0  0  0  0
    2.2320   -0.4000    0.1691 C   0  0  0  0  0  0  0  0  0  0  0  0
    5.1973   -0.2865   -0.0853 C   0  0  0  0  0  0  0  0  0  0  0  0
    7.7243   -0.4016    0.0564 C   0  0  0  0  0  0  0  0  0  0  0  0
   10.1401   -0.4247    0.0435 C   0  0  0  0  0  0  0  0  0  0  0  0
    8.9324   -0.0563   -0.5493 C   0  0  0  0  0  0  0  0  0  0  0  0
    7.7238   -1.1152    1.2549 C   0  0  0  0  0  0  0  0  0  0  0  0
   10.1397   -1.1385    1.2420 C   0  0  0  0  0  0  0  0  0  0  0  0
    8.9316   -1.4837    1.8477 C   0  0  0  0  0  0  0  0  0  0  0  0
   11.4320   -0.0575   -0.6049 C   0  0  0  0  0  0  0  0  0  0  0  0
   -8.6574   -3.9740   -0.6953 H   0  0  0  0  0  0  0  0  0  0  0  0
   -8.1400   -3.7023    0.9767 H   0  0  0  0  0  0  0  0  0  0  0  0
  -10.2507   -3.1426    1.5842 H   0  0  0  0  0  0  0  0  0  0  0  0
  -10.8317   -3.3901   -0.0704 H   0  0  0  0  0  0  0  0  0  0  0  0
   -8.1007   -1.7995   -1.3650 H   0  0  0  0  0  0  0  0  0  0  0  0
   -6.9394   -1.9496   -0.0223 H   0  0  0  0  0  0  0  0  0  0  0  0
  -10.8007   -0.8958    1.1045 H   0  0  0  0  0  0  0  0  0  0  0  0
  -10.5707   -1.1346   -0.6444 H   0  0  0  0  0  0  0  0  0  0  0  0
   -9.1593    1.1099    0.5587 H   0  0  0  0  0  0  0  0  0  0  0  0
   -8.8547    0.5095   -1.0705 H   0  0  0  0  0  0  0  0  0  0  0  0
   -1.6336   -1.7553   -1.7762 H   0  0  0  0  0  0  0  0  0  0  0  0
   -4.9535    3.3106    1.4630 H   0  0  0  0  0  0  0  0  0  0  0  0
    0.1140    1.2791   -2.6106 H   0  0  0  0  0  0  0  0  0  0  0  0
    0.3668   -0.9224    1.0935 H   0  0  0  0  0  0  0  0  0  0  0  0
    2.5636    1.3276   -2.7480 H   0  0  0  0  0  0  0  0  0  0  0  0
    2.7538   -0.8874    0.9802 H   0  0  0  0  0  0  0  0  0  0  0  0
   -0.4787    3.5877    1.3192 H   0  0  0  0  0  0  0  0  0  0  0  0
    0.1686    2.2219    0.4634 H   0  0  0  0  0  0  0  0  0  0  0  0
    4.6317    0.7376   -1.7975 H   0  0  0  0  0  0  0  0  0  0  0  0
    6.5811    0.4880   -1.4165 H   0  0  0  0  0  0  0  0  0  0  0  0
    8.9340    0.4982   -1.4851 H   0  0  0  0  0  0  0  0  0  0  0  0
    6.8332   -1.4200    1.7852 H   0  0  0  0  0  0  0  0  0  0  0  0
   11.0738   -1.4333    1.7127 H   0  0  0  0  0  0  0  0  0  0  0  0
    8.9325   -2.0399    2.7807 H   0  0  0  0  0  0  0  0  0  0  0  0
   12.2296    0.0568    0.1370 H   0  0  0  0  0  0  0  0  0  0  0  0
   11.3492    0.8974   -1.1352 H   0  0  0  0  0  0  0  0  0  0  0  0
   11.7271   -0.8322   -1.3194 H   0  0  0  0  0  0  0  0  0  0  0  0
  1 15  1  0  0  0  0
  1 21  1  0  0  0  0
  2 28  2  0  0  0  0
  3 10  1  0  0  0  0
  3 11  1  0  0  0  0
  3 12  1  0  0  0  0
  4 20  2  0  0  0  0
  4 22  1  0  0  0  0
  5 20  1  0  0  0  0
  5 52  1  0  0  0  0
  5 53  1  0  0  0  0
  6 25  1  0  0  0  0
  6 28  1  0  0  0  0
  6 54  1  0  0  0  0
  7 28  1  0  0  0  0
  7 29  1  0  0  0  0
  7 55  1  0  0  0  0
  8  9  1  0  0  0  0
  8 10  1  0  0  0  0
  8 36  1  0  0  0  0
  8 37  1  0  0  0  0
  9 11  1  0  0  0  0
  9 38  1  0  0  0  0
  9 39  1  0  0  0  0
 10 40  1  0  0  0  0
 10 41  1  0  0  0  0
 11 42  1  0  0  0  0
 11 43  1  0  0  0  0
 12 13  1  0  0  0  0
 12 44  1  0  0  0  0
 12 45  1  0  0  0  0
 13 18  3  0  0  0  0
 14 15  2  0  0  0  0
 14 17  1  0  0  0  0
 14 20  1  0  0  0  0
 15 16  1  0  0  0  0
 16 18  1  0  0  0  0
 16 22  2  0  0  0  0
 17 19  1  0  0  0  0
 17 21  2  0  0  0  0
 19 23  2  0  0  0  0
 19 24  1  0  0  0  0
 21 46  1  0  0  0  0
 22 47  1  0  0  0  0
 23 26  1  0  0  0  0
 23 48  1  0  0  0  0
 24 27  2  0  0  0  0
 24 49  1  0  0  0  0
 25 26  2  0  0  0  0
 25 27  1  0  0  0  0
 26 50  1  0  0  0  0
 27 51  1  0  0  0  0
 29 31  1  0  0  0  0
 29 32  2  0  0  0  0
 30 31  2  0  0  0  0
 30 33  1  0  0  0  0
 30 35  1  0  0  0  0
 31 56  1  0  0  0  0
 32 34  1  0  0  0  0
 32 57  1  0  0  0  0
 33 34  2  0  0  0  0
 33 58  1  0  0  0  0
 34 59  1  0  0  0  0
 35 60  1  0  0  0  0
 35 61  1  0  0  0  0
 35 62  1  0  0  0  0
M  END
> <PUBCHEM_COMPOUND_CID>
18451223

> <PUBCHEM_CONFORMER_RMSD>
1

> <PUBCHEM_CONFORMER_DIVERSEORDER>
1
6
3
11
16
26
5
20
14
9
19
4
13
12
10
21
23
22
7
15
8
25
18
2
17
24

> <PUBCHEM_MMFF94_PARTIAL_CHARGES>
46
1 -0.08
10 0.27
11 0.27
12 0.47
13 -0.2
15 0.04
16 0.07
17 -0.05
18 -0.07
19 0.05
2 -0.57
20 0.41
21 -0.11
22 0.16
23 -0.15
24 -0.15
25 0.12
26 -0.15
27 -0.15
28 0.69
29 0.12
3 -0.81
30 -0.14
31 -0.15
32 -0.15
33 -0.15
34 -0.15
35 0.14
4 -0.62
46 0.15
47 0.15
48 0.15
49 0.15
5 -0.9
50 0.15
51 0.15
52 0.4
53 0.4
54 0.37
55 0.37
56 0.15
57 0.15
58 0.15
59 0.15
6 -0.55
7 -0.55

> <PUBCHEM_EFFECTIVE_ROTOR_COUNT>
7

> <PUBCHEM_PHARMACOPHORE_FEATURES>
11
1 2 acceptor
1 3 cation
1 5 donor
1 6 donor
1 7 donor
3 4 5 20 cation
5 1 14 15 17 21 rings
5 3 8 9 10 11 rings
6 19 23 24 25 26 27 rings
6 29 30 31 32 33 34 rings
6 4 14 15 16 20 22 rings

> <PUBCHEM_HEAVY_ATOM_COUNT>
35

> <PUBCHEM_ATOM_DEF_STEREO_COUNT>
0

> <PUBCHEM_ATOM_UDEF_STEREO_COUNT>
0

> <PUBCHEM_BOND_DEF_STEREO_COUNT>
0

> <PUBCHEM_BOND_UDEF_STEREO_COUNT>
0

> <PUBCHEM_ISOTOPIC_ATOM_COUNT>
0

> <PUBCHEM_COMPONENT_COUNT>
1

> <PUBCHEM_CACTVS_TAUTO_COUNT>
6

> <PUBCHEM_CONFORMER_ID>
01198B1700000001

> <PUBCHEM_MMFF94_ENERGY>
98.762

> <PUBCHEM_FEATURE_SELFOVERLAP>
55.936

> <PUBCHEM_SHAPE_FINGERPRINT>
10 15 17418088785707493276
10076449 9 17418373580087483329
10100884 174 18335138752209399147
10162869 55 17675927603837001542
10299344 5 18334856092427186916
10533779 47 16702026336556015542
11135609 99 18336548326231518199
11181472 205 9871478611986514134
11410812 94 17385998431097877405
11456790 92 16988844994825786745
12013929 94 18409732871646717251
12089408 11 18186805768313213868
12498461 61 18334853926530177083
12539745 222 18260544512005217181
13383668 254 12463283769552948967
13740195 50 18201998849918569075
14202775 3 18341899550598334638
14279260 333 18408882950287925271
14400156 96 17822578338979149284
14918687 75 18187645825667858862
15247644 1 16950284005243164794
15274700 256 18341331171451972218
15392192 104 18412262814650617950
16728433 281 7925095662762940983
17686467 74 18272082803653306881
20156587 128 9079126561890455720
20501277 279 16487538040108735327
21057603 130 17821730550804027015
21102433 48 18186516609535243451
21360443 89 18341891927088814967
21792961 116 14851601059839050772
21895431 317 17749380430870698202
22899556 10 17480039501929776329
232437 2 18113899364368258270
2835820 33 18344146998765161962
3092352 35 18408041794180891530
3986486 107 14273448185585783367
4017518 198 13767929018544079257
4353968 344 17603579708901986237
4625314 4 12107802812759869574
58083652 198 16009043778415346212
59521270 166 8862946065408656289
59521660 218 17895203254461332300
59584819 82 17530969098495532859
59682541 35 17561081401663907329
6691757 9 18413395323609880451
9663363 56 17989204833927682341
9953998 17 16056874754383408191
9962374 69 17821728355959486396

> <PUBCHEM_SHAPE_MULTIPOLES>
693.36
41.45
2.53
1.33
41.18
0.08
-0.13
-29.76
10.02
-7.87
1.05
1.68
0.12
-2.18

> <PUBCHEM_SHAPE_SELFOVERLAP>
1504.629

> <PUBCHEM_SHAPE_VOLUME>
380.6

> <PUBCHEM_COORDINATE_TYPE>
2
5
10

$$$$
49830362
  -OEChem-05102415023D

 59 63  0     0  0  0  0  0  0999 V2000
    4.9277   -0.0193    1.9343 S   0  0  0  0  0  0  0  0  0  0  0  0
  -10.1976    0.9591   -0.4228 O   0  0  0  0  0  0  0  0  0  0  0  0
   -3.7366    0.6894    0.1574 O   0  0  0  0  0  0  0  0  0  0  0  0
    4.5921   -0.1610   -2.5301 N   0  0  0  0  0  0  0  0  0  0  0  0
    9.2775    1.3683    0.2972 N   0  0  0  0  0  0  0  0  0  0  0  0
    2.2767   -0.5771   -2.2991 N   0  0  0  0  0  0  0  0  0  0  0  0
    9.3641    0.2189    0.9883 N   0  0  0  0  0  0  0  0  0  0  0  0
   -2.8062   -1.4591    0.2451 N   0  0  0  0  0  0  0  0  0  0  0  0
   -5.0936   -1.2115    0.0394 N   0  0  0  0  0  0  0  0  0  0  0  0
    3.6768   -0.2878   -0.3124 C   0  0  0  0  0  0  0  0  0  0  0  0
    4.9503   -0.0463    0.2110 C   0  0  0  0  0  0  0  0  0  0  0  0
    2.7075   -0.4457    0.7338 C   0  0  0  0  0  0  0  0  0  0  0  0
    6.0569    0.1402   -0.6260 C   0  0  0  0  0  0  0  0  0  0  0  0
    1.2941   -0.7054    0.6093 C   0  0  0  0  0  0  0  0  0  0  0  0
    3.5338   -0.3389   -1.7080 C   0  0  0  0  0  0  0  0  0  0  0  0
    3.2514   -0.3240    1.9904 C   0  0  0  0  0  0  0  0  0  0  0  0
    7.3677    0.3893   -0.1084 C   0  0  0  0  0  0  0  0  0  0  0  0
    5.8022    0.0692   -1.9843 C   0  0  0  0  0  0  0  0  0  0  0  0
    0.3942    0.3574    0.5275 C   0  0  0  0  0  0  0  0  0  0  0  0
    0.8271   -2.0191    0.5698 C   0  0  0  0  0  0  0  0  0  0  0  0
    8.1016    1.5188   -0.3771 C   0  0  0  0  0  0  0  0  0  0  0  0
   -1.4393   -1.2076    0.3673 C   0  0  0  0  0  0  0  0  0  0  0  0
    8.1945   -0.3749    0.7367 C   0  0  0  0  0  0  0  0  0  0  0  0
   -0.9725    0.1063    0.4066 C   0  0  0  0  0  0  0  0  0  0  0  0
   -0.5396   -2.2703    0.4489 C   0  0  0  0  0  0  0  0  0  0  0  0
   10.3769    2.3032    0.3207 C   0  0  0  0  0  0  0  0  0  0  0  0
   -3.8707   -0.5300    0.1477 C   0  0  0  0  0  0  0  0  0  0  0  0
   -6.3910   -0.6594   -0.0781 C   0  0  0  0  0  0  0  0  0  0  0  0
   -7.5000   -1.4997   -0.1755 C   0  0  0  0  0  0  0  0  0  0  0  0
   -6.5612    0.7250   -0.0965 C   0  0  0  0  0  0  0  0  0  0  0  0
   -8.9493    0.4285   -0.3100 C   0  0  0  0  0  0  0  0  0  0  0  0
   -8.7792   -0.9560   -0.2914 C   0  0  0  0  0  0  0  0  0  0  0  0
   -7.8403    1.2689   -0.2125 C   0  0  0  0  0  0  0  0  0  0  0  0
  -10.4219    2.2271    0.1920 C   0  0  0  0  0  0  0  0  0  0  0  0
  -11.8741    2.3231    0.6086 C   0  0  0  0  0  0  0  0  0  0  0  0
    2.7518   -0.3979    2.9473 H   0  0  0  0  0  0  0  0  0  0  0  0
    6.5980    0.1976   -2.7136 H   0  0  0  0  0  0  0  0  0  0  0  0
    0.7432    1.3871    0.5555 H   0  0  0  0  0  0  0  0  0  0  0  0
    1.5153   -2.8589    0.6309 H   0  0  0  0  0  0  0  0  0  0  0  0
    7.8932    2.3965   -0.9749 H   0  0  0  0  0  0  0  0  0  0  0  0
    8.0007   -1.3420    1.1792 H   0  0  0  0  0  0  0  0  0  0  0  0
   -1.6032    0.9818    0.3487 H   0  0  0  0  0  0  0  0  0  0  0  0
   -0.8894   -3.2991    0.4188 H   0  0  0  0  0  0  0  0  0  0  0  0
    2.2283   -0.6036   -3.3095 H   0  0  0  0  0  0  0  0  0  0  0  0
    1.4344   -0.7202   -1.7690 H   0  0  0  0  0  0  0  0  0  0  0  0
   -3.0694   -2.4412    0.2232 H   0  0  0  0  0  0  0  0  0  0  0  0
   10.1303    3.1727   -0.2935 H   0  0  0  0  0  0  0  0  0  0  0  0
   10.5433    2.6122    1.3557 H   0  0  0  0  0  0  0  0  0  0  0  0
   11.2625    1.8028   -0.0788 H   0  0  0  0  0  0  0  0  0  0  0  0
   -5.0519   -2.2275    0.0453 H   0  0  0  0  0  0  0  0  0  0  0  0
   -7.3813   -2.5801   -0.1622 H   0  0  0  0  0  0  0  0  0  0  0  0
   -5.7541    1.4406   -0.0327 H   0  0  0  0  0  0  0  0  0  0  0  0
   -9.6395   -1.6155   -0.3667 H   0  0  0  0  0  0  0  0  0  0  0  0
   -7.9277    2.3508   -0.2512 H   0  0  0  0  0  0  0  0  0  0  0  0
  -10.1890    3.0213   -0.5258 H   0  0  0  0  0  0  0  0  0  0  0  0
   -9.8119    2.3568    1.0948 H   0  0  0  0  0  0  0  0  0  0  0  0
  -12.0847    3.2895    1.0754 H   0  0  0  0  0  0  0  0  0  0  0  0
  -12.1259    1.5264    1.3164 H   0  0  0  0  0  0  0  0  0  0  0  0
  -12.5326    2.1987   -0.2574 H   0  0  0  0  0  0  0  0  0  0  0  0
  1 11  1  0  0  0  0
  1 16  1  0  0  0  0
  2 31  1  0  0  0  0
  2 34  1  0  0  0  0
  3 27  2  0  0  0  0
  4 15  2  0  0  0  0
  4 18  1  0  0  0  0
  5  7  1  0  0  0  0
  5 21  1  0  0  0  0
  5 26  1  0  0  0  0
  6 15  1  0  0  0  0
  6 44  1  0  0  0  0
  6 45  1  0  0  0  0
  7 23  2  0  0  0  0
  8 22  1  0  0  0  0
  8 27  1  0  0  0  0
  8 46  1  0  0  0  0
  9 27  1  0  0  0  0
  9 28  1  0  0  0  0
  9 50  1  0  0  0  0
 10 11  2  0  0  0  0
 10 12  1  0  0  0  0
 10 15  1  0  0  0  0
 11 13  1  0  0  0  0
 12 14  1  0  0  0  0
 12 16  2  0  0  0  0
 13 17  1  0  0  0  0
 13 18  2  0  0  0  0
 14 19  2  0  0  0  0
 14 20  1  0  0  0  0
 16 36  1  0  0  0  0
 17 21  2  0  0  0  0
 17 23  1  0  0  0  0
 18 37  1  0  0  0  0
 19 24  1  0  0  0  0
 19 38  1  0  0  0  0
 20 25  2  0  0  0  0
 20 39  1  0  0  0  0
 21 40  1  0  0  0  0
 22 24  2  0  0  0  0
 22 25  1  0  0  0  0
 23 41  1  0  0  0  0
 24 42  1  0  0  0  0
 25 43  1  0  0  0  0
 26 47  1  0  0  0  0
 26 48  1  0  0  0  0
 26 49  1  0  0  0  0
 28 29  2  0  0  0  0
 28 30  1  0  0  0  0
 29 32  1  0  0  0  0
 29 51  1  0  0  0  0
 30 33  2  0  0  0  0
 30 52  1  0  0  0  0
 31 32  2  0  0  0  0
 31 33  1  0  0  0  0
 32 53  1  0  0  0  0
 33 54  1  0  0  0  0
 34 35  1  0  0  0  0
 34 55  1  0  0  0  0
 34 56  1  0  0  0  0
 35 57  1  0  0  0  0
 35 58  1  0  0  0  0
 35 59  1  0  0  0  0
M  END
> <PUBCHEM_COMPOUND_CID>
49830362

> <PUBCHEM_CONFORMER_RMSD>
1

> <PUBCHEM_CONFORMER_DIVERSEORDER>
1
4
5
13
15
7
18
16
8
19
14
9
17
2
3
10
11
12
6

> <PUBCHEM_MMFF94_PARTIAL_CHARGES>
49
1 -0.08
11 0.04
12 -0.05
13 0.05
14 0.05
15 0.41
16 -0.11
17 -0.05
18 0.16
19 -0.15
2 -0.36
20 -0.15
21 -0.3
22 0.12
23 0.14
24 -0.15
25 -0.15
26 0.26
27 0.69
28 0.12
29 -0.15
3 -0.57
30 -0.15
31 0.08
32 -0.15
33 -0.15
34 0.28
36 0.15
37 0.15
38 0.15
39 0.15
4 -0.62
40 0.15
41 0.15
42 0.15
43 0.15
44 0.4
45 0.4
46 0.37
5 0.31
50 0.37
51 0.15
52 0.15
53 0.15
54 0.15
6 -0.9
7 -0.71
8 -0.55
9 -0.55

> <PUBCHEM_EFFECTIVE_ROTOR_COUNT>
8

> <PUBCHEM_PHARMACOPHORE_FEATURES>
12
1 2 acceptor
1 3 acceptor
1 6 donor
1 7 acceptor
1 8 donor
1 9 donor
3 4 6 15 cation
5 1 10 11 12 16 rings
5 5 7 17 21 23 rings
6 14 19 20 22 24 25 rings
6 28 29 30 31 32 33 rings
6 4 10 11 13 15 18 rings

> <PUBCHEM_HEAVY_ATOM_COUNT>
35

> <PUBCHEM_ATOM_DEF_STEREO_COUNT>
0

> <PUBCHEM_ATOM_UDEF_STEREO_COUNT>
0

> <PUBCHEM_BOND_DEF_STEREO_COUNT>
0

> <PUBCHEM_BOND_UDEF_STEREO_COUNT>
0

> <PUBCHEM_ISOTOPIC_ATOM_COUNT>
0

> <PUBCHEM_COMPONENT_COUNT>
1

> <PUBCHEM_CACTVS_TAUTO_COUNT>
6

> <PUBCHEM_CONFORMER_ID>
02F859DA00000001

> <PUBCHEM_MMFF94_ENERGY>
111.9534

> <PUBCHEM_FEATURE_SELFOVERLAP>
61.011

> <PUBCHEM_SHAPE_FINGERPRINT>
10076449 9 15195287529741325483
10162869 55 16226043444374876987
10533779 47 15068618253929772456
10677351 14 16916777535516790063
11135609 127 18200592635710692928
11409948 35 18338517432005285862
11443803 9 18260828211010187090
11456790 92 15140959564854107468
11463208 3 8646503925192050648
11607047 141 18187918436570790186
12013929 94 10015863193248675597
12089408 11 18187361043202444179
12236239 1 17676488402323323306
12498461 61 11530486645074801865
12522641 33 17632860819239357758
12539745 222 10809333439568734791
12664476 115 18059851762135139569
13553643 46 17676202493864749916
14117953 113 15984825969550348176
14118638 360 16415206637025476203
14251764 46 18334574659688291682
14294032 229 18260537923361744439
14344974 52 18200871881150321395
150020 25 17418094321883602791
15061470 23 18413385454233931112
15065858 18 18060701697323403551
15419008 145 15791720889293868764
15510794 2 17489586780004030599
155225 1 18408885127445350073
15840311 113 17967250919515150308
16728433 281 17344922815245986057
1754911 235 17632572748194686385
1818759 1 11312058759620610365
20721686 124 18060421305443973294
21057603 43 18114452372601590202
21362267 20 8718822090010463865
21362267 313 18336823092231877570
21591340 7 17749105629613606242
249057 3 16056595495272315394
3092352 35 17530964696786757755
3178227 256 14707205544492265658
3711267 37 18336276678261799977
3991529 128 18335988593783692649
42767 2 15051735258177329337
44280117 145 18272086154819684695
5028188 123 18060414743001878455
54039377 194 11024108754987148043
57359948 33 18342746208968495844
5937810 71 17917438571542382793
59520757 100 17489017297447973110
9663363 56 16773794815207328202
9962374 69 10663810875965097555

> <PUBCHEM_SHAPE_MULTIPOLES>
682.51
41.4
1.86
1.48
59.14
0.38
0.56
29.89
-1.56
2.58
-0.29
-3.26
-0.12
-0.6

> <PUBCHEM_SHAPE_SELFOVERLAP>
1497.199

> <PUBCHEM_SHAPE_VOLUME>
372.9

> <PUBCHEM_COORDINATE_TYPE>
2
5
10

$$$$
18451366
  -OEChem-05102415023D

 42 45  0     0  0  0  0  0  0999 V2000
    9.1861   -0.1761   -1.4508 Br  0  0  0  0  0  0  0  0  0  0  0  0
   -6.0287    2.0226    0.7604 S   0  0  0  0  0  0  0  0  0  0  0  0
    2.5827   -0.0573    1.2521 O   0  0  0  0  0  0  0  0  0  0  0  0
    1.7073    0.5041   -0.8473 N   0  0  0  0  0  0  0  0  0  0  0  0
   -5.7705   -2.3156   -0.3234 N   0  0  0  0  0  0  0  0  0  0  0  0
   -3.4413   -2.0546   -0.6316 N   0  0  0  0  0  0  0  0  0  0  0  0
    3.9841    0.2013   -0.6021 N   0  0  0  0  0  0  0  0  0  0  0  0
   -3.8201    0.8891    0.1358 C   0  0  0  0  0  0  0  0  0  0  0  0
   -4.8121   -0.1437    0.0459 C   0  0  0  0  0  0  0  0  0  0  0  0
   -2.4034    0.7903   -0.1162 C   0  0  0  0  0  0  0  0  0  0  0  0
   -6.0816    0.3456    0.3658 C   0  0  0  0  0  0  0  0  0  0  0  0
   -4.3442    2.1033    0.5110 C   0  0  0  0  0  0  0  0  0  0  0  0
   -4.6931   -1.4995   -0.2988 C   0  0  0  0  0  0  0  0  0  0  0  0
   -1.5313    0.4647    0.9226 C   0  0  0  0  0  0  0  0  0  0  0  0
   -1.9054    1.0204   -1.3987 C   0  0  0  0  0  0  0  0  0  0  0  0
    0.3369    0.5994   -0.6036 C   0  0  0  0  0  0  0  0  0  0  0  0
   -0.1611    0.3691    0.6787 C   0  0  0  0  0  0  0  0  0  0  0  0
   -0.5352    0.9251   -1.6425 C   0  0  0  0  0  0  0  0  0  0  0  0
   -7.2078   -0.4858    0.3455 C   0  0  0  0  0  0  0  0  0  0  0  0
   -6.9760   -1.8034   -0.0082 C   0  0  0  0  0  0  0  0  0  0  0  0
    2.7468    0.1890    0.0615 C   0  0  0  0  0  0  0  0  0  0  0  0
    5.2654   -0.0586   -0.0609 C   0  0  0  0  0  0  0  0  0  0  0  0
    6.3941    0.0012   -0.8781 C   0  0  0  0  0  0  0  0  0  0  0  0
    5.3992   -0.3744    1.2912 C   0  0  0  0  0  0  0  0  0  0  0  0
    7.6568   -0.2549   -0.3432 C   0  0  0  0  0  0  0  0  0  0  0  0
    6.6618   -0.6307    1.8260 C   0  0  0  0  0  0  0  0  0  0  0  0
    7.7906   -0.5709    1.0087 C   0  0  0  0  0  0  0  0  0  0  0  0
   -3.8256    3.0423    0.6534 H   0  0  0  0  0  0  0  0  0  0  0  0
   -1.9046    0.2812    1.9275 H   0  0  0  0  0  0  0  0  0  0  0  0
   -2.5718    1.2740   -2.2198 H   0  0  0  0  0  0  0  0  0  0  0  0
    0.4468    0.1123    1.5343 H   0  0  0  0  0  0  0  0  0  0  0  0
   -0.1610    1.1067   -2.6468 H   0  0  0  0  0  0  0  0  0  0  0  0
   -8.1998   -0.1253    0.5902 H   0  0  0  0  0  0  0  0  0  0  0  0
   -7.7978   -2.5120   -0.0476 H   0  0  0  0  0  0  0  0  0  0  0  0
    1.9942    0.6855   -1.8060 H   0  0  0  0  0  0  0  0  0  0  0  0
   -2.5861   -1.5260   -0.6397 H   0  0  0  0  0  0  0  0  0  0  0  0
   -3.4102   -3.0369   -0.8724 H   0  0  0  0  0  0  0  0  0  0  0  0
    3.9676    0.4238   -1.5941 H   0  0  0  0  0  0  0  0  0  0  0  0
    6.2864    0.2475   -1.9323 H   0  0  0  0  0  0  0  0  0  0  0  0
    4.5766   -0.4408    1.9885 H   0  0  0  0  0  0  0  0  0  0  0  0
    6.7673   -0.8769    2.8787 H   0  0  0  0  0  0  0  0  0  0  0  0
    8.7671   -0.7735    1.4411 H   0  0  0  0  0  0  0  0  0  0  0  0
  1 25  1  0  0  0  0
  2 11  1  0  0  0  0
  2 12  1  0  0  0  0
  3 21  2  0  0  0  0
  4 16  1  0  0  0  0
  4 21  1  0  0  0  0
  4 35  1  0  0  0  0
  5 13  2  0  0  0  0
  5 20  1  0  0  0  0
  6 13  1  0  0  0  0
  6 36  1  0  0  0  0
  6 37  1  0  0  0  0
  7 21  1  0  0  0  0
  7 22  1  0  0  0  0
  7 38  1  0  0  0  0
  8  9  1  0  0  0  0
  8 10  1  0  0  0  0
  8 12  2  0  0  0  0
  9 11  2  0  0  0  0
  9 13  1  0  0  0  0
 10 14  2  0  0  0  0
 10 15  1  0  0  0  0
 11 19  1  0  0  0  0
 12 28  1  0  0  0  0
 14 17  1  0  0  0  0
 14 29  1  0  0  0  0
 15 18  2  0  0  0  0
 15 30  1  0  0  0  0
 16 17  2  0  0  0  0
 16 18  1  0  0  0  0
 17 31  1  0  0  0  0
 18 32  1  0  0  0  0
 19 20  2  0  0  0  0
 19 33  1  0  0  0  0
 20 34  1  0  0  0  0
 22 23  2  0  0  0  0
 22 24  1  0  0  0  0
 23 25  1  0  0  0  0
 23 39  1  0  0  0  0
 24 26  2  0  0  0  0
 24 40  1  0  0  0  0
 25 27  2  0  0  0  0
 26 27  1  0  0  0  0
 26 41  1  0  0  0  0
 27 42  1  0  0  0  0
M  END
> <PUBCHEM_COMPOUND_CID>
18451366

> <PUBCHEM_CONFORMER_RMSD>
0.8

> <PUBCHEM_CONFORMER_DIVERSEORDER>
1
14
7
15
26
30
31
16
2
17
11
18
21
8
13
23
12
28
19
32
29
20
3
6
4
25
10
27
5
9
22
24

> <PUBCHEM_MMFF94_PARTIAL_CHARGES>
41
1 -0.11
10 0.05
11 0.04
12 -0.11
13 0.41
14 -0.15
15 -0.15
16 0.12
17 -0.15
18 -0.15
19 -0.15
2 -0.08
20 0.16
21 0.69
22 0.12
23 -0.15
24 -0.15
25 0.11
26 -0.15
27 -0.15
28 0.15
29 0.15
3 -0.57
30 0.15
31 0.15
32 0.15
33 0.15
34 0.15
35 0.37
36 0.4
37 0.4
38 0.37
39 0.15
4 -0.55
40 0.15
41 0.15
42 0.15
5 -0.62
6 -0.9
7 -0.55
8 -0.05

> <PUBCHEM_EFFECTIVE_ROTOR_COUNT>
5

> <PUBCHEM_PHARMACOPHORE_FEATURES>
10
1 1 hydrophobe
1 3 acceptor
1 4 donor
1 6 donor
1 7 donor
3 5 6 13 cation
5 2 8 9 11 12 rings
6 10 14 15 16 17 18 rings
6 22 23 24 25 26 27 rings
6 5 9 11 13 19 20 rings

> <PUBCHEM_HEAVY_ATOM_COUNT>
27

> <PUBCHEM_ATOM_DEF_STEREO_COUNT>
0

> <PUBCHEM_ATOM_UDEF_STEREO_COUNT>
0

> <PUBCHEM_BOND_DEF_STEREO_COUNT>
0

> <PUBCHEM_BOND_UDEF_STEREO_COUNT>
0

> <PUBCHEM_ISOTOPIC_ATOM_COUNT>
0

> <PUBCHEM_COMPONENT_COUNT>
1

> <PUBCHEM_CACTVS_TAUTO_COUNT>
6

> <PUBCHEM_CONFORMER_ID>
01198BA600000001

> <PUBCHEM_MMFF94_ENERGY>
87.1771

> <PUBCHEM_FEATURE_SELFOVERLAP>
50.86

> <PUBCHEM_SHAPE_FINGERPRINT>
10 15 17346593097698013728
10299344 5 18259987072109272426
10319926 262 18201992244533324009
10391435 84 15647342978575177704
11315181 36 18335422370484825689
11524674 6 17561080328091389335
12089408 11 18187367610956155408
12091667 2 17167864141081896045
12166972 35 18259704519165212868
12236239 1 18113902676130830973
13288520 33 18408603678359587037
13885169 127 18272935998668812424
13914758 101 9079118864907972436
14068700 675 18334014999305954916
14251764 18 17967253092198785752
14251764 46 18343585131692203405
14344974 204 17559388265754324759
14556957 393 15430324581113256446
14856354 85 18411983572465434119
15021287 119 17894919529264129949
15119646 104 17821725001543042882
15183329 4 17313100860966621986
15301273 46 17703792501249924916
15348495 7 17489296551229563626
15352257 5 18342458115163026918
15419008 47 17489583446566357152
15419008 91 17988063531545963112
15461852 350 18411144636477138900
15716309 27 17894630335982884776
1577012 14 17894912897828979648
17093844 174 17632572743567403329
19611394 137 17489587904314622114
20281389 69 14405182863810384026
21150785 3 15068620500529775590
21315759 40 18186803561069249672
21360443 120 17821729424985305258
21792961 116 16845016715292741076
22224240 67 18260546723849681018
23035841 295 18407759244069335219
23081809 10 17894918425172522660
23389318 12 17240484736797294078
23516275 137 18195266433117676994
23522609 53 17896628131542358244
23559900 14 18201997738255515721
23576562 1 14201971215212941783
3178227 256 16487257690271070458
328311 84 17132117931810264230
3383291 50 18339363071635839179
397830 11 17702653496991628728
4325135 7 18261111872362283470
437795 51 17346324769906782526
44389302 135 18116420468139807978
445580 167 16950566593211873204
4938544 92 18338514124141781885
5104073 3 16988012574060350786
5219985 9 17894349977793150004
54039377 194 17895482539948603675
57527293 21 17129303349758086687
58260988 114 16878808109739950731
5969126 39 16877936127345105717
6691757 9 18342181043239262785
67123 10 18412548722096355580
9831232 110 18193275188233195494
9953998 17 17632298978352232179

> <PUBCHEM_SHAPE_MULTIPOLES>
539.65
27.4
1.66
1.36
37.78
0.38
-0.04
7.04
-0.87
-4.68
0.06
2.25
-0.09
-1.37

> <PUBCHEM_SHAPE_SELFOVERLAP>
1167.971

> <PUBCHEM_SHAPE_VOLUME>
302

> <PUBCHEM_COORDINATE_TYPE>
2
5
10

$$$$
49830363
  -OEChem-05102415023D

 60 64  0     0  0  0  0  0  0999 V2000
    4.0405    0.9977   -1.4424 S   0  0  0  0  0  0  0  0  0  0  0  0
    9.4281    2.2593    0.0942 O   0  0  0  0  0  0  0  0  0  0  0  0
   -4.6919   -0.4159   -0.7527 O   0  0  0  0  0  0  0  0  0  0  0  0
  -11.1732   -0.7662   -0.5927 O   0  0  0  0  0  0  0  0  0  0  0  0
    8.5476   -0.4293   -0.3635 N   0  0  0  0  0  0  0  0  0  0  0  0
    3.5554   -1.9937    1.8559 N   0  0  0  0  0  0  0  0  0  0  0  0
    8.2174   -0.7753   -1.6195 N   0  0  0  0  0  0  0  0  0  0  0  0
    1.2580   -1.4462    1.9555 N   0  0  0  0  0  0  0  0  0  0  0  0
   -3.7162    1.1507    0.6905 N   0  0  0  0  0  0  0  0  0  0  0  0
   -6.0138    0.9173    0.6415 N   0  0  0  0  0  0  0  0  0  0  0  0
    2.7192   -0.3249    0.3433 C   0  0  0  0  0  0  0  0  0  0  0  0
    4.0047   -0.1827   -0.1869 C   0  0  0  0  0  0  0  0  0  0  0  0
    1.7895    0.5532   -0.3076 C   0  0  0  0  0  0  0  0  0  0  0  0
    5.0781   -0.9410    0.2954 C   0  0  0  0  0  0  0  0  0  0  0  0
    6.4005   -0.8097   -0.2356 C   0  0  0  0  0  0  0  0  0  0  0  0
    0.3782    0.7069   -0.0524 C   0  0  0  0  0  0  0  0  0  0  0  0
    2.5295   -1.2538    1.3788 C   0  0  0  0  0  0  0  0  0  0  0  0
    2.3736    1.3194   -1.2882 C   0  0  0  0  0  0  0  0  0  0  0  0
    4.7785   -1.8254    1.3168 C   0  0  0  0  0  0  0  0  0  0  0  0
    7.4952   -0.4344    0.5042 C   0  0  0  0  0  0  0  0  0  0  0  0
    6.9046   -1.0063   -1.5352 C   0  0  0  0  0  0  0  0  0  0  0  0
   -0.5451   -0.0780   -0.7434 C   0  0  0  0  0  0  0  0  0  0  0  0
   -0.0635    1.6395    0.8861 C   0  0  0  0  0  0  0  0  0  0  0  0
    9.9161   -0.0971   -0.0480 C   0  0  0  0  0  0  0  0  0  0  0  0
   -2.3513    1.0031    0.4422 C   0  0  0  0  0  0  0  0  0  0  0  0
   -1.9098    0.0702   -0.4962 C   0  0  0  0  0  0  0  0  0  0  0  0
   -1.4282    1.7878    1.1334 C   0  0  0  0  0  0  0  0  0  0  0  0
   10.2935    1.3062   -0.5099 C   0  0  0  0  0  0  0  0  0  0  0  0
   -4.8019    0.4572    0.1021 C   0  0  0  0  0  0  0  0  0  0  0  0
   -7.3253    0.4891    0.3276 C   0  0  0  0  0  0  0  0  0  0  0  0
   -8.4199    1.0665    0.9710 C   0  0  0  0  0  0  0  0  0  0  0  0
   -7.5237   -0.5102   -0.6252 C   0  0  0  0  0  0  0  0  0  0  0  0
   -9.9113   -0.3548   -0.2908 C   0  0  0  0  0  0  0  0  0  0  0  0
   -9.7130    0.6447    0.6619 C   0  0  0  0  0  0  0  0  0  0  0  0
   -8.8167   -0.9321   -0.9344 C   0  0  0  0  0  0  0  0  0  0  0  0
  -11.3036   -1.7919   -1.5759 C   0  0  0  0  0  0  0  0  0  0  0  0
    1.9085    2.0572   -1.9286 H   0  0  0  0  0  0  0  0  0  0  0  0
    5.5449   -2.4601    1.7544 H   0  0  0  0  0  0  0  0  0  0  0  0
    7.6134   -0.1739    1.5479 H   0  0  0  0  0  0  0  0  0  0  0  0
    6.3758   -1.3121   -2.4272 H   0  0  0  0  0  0  0  0  0  0  0  0
   -0.2160   -0.8105   -1.4770 H   0  0  0  0  0  0  0  0  0  0  0  0
    0.6432    2.2581    1.4344 H   0  0  0  0  0  0  0  0  0  0  0  0
   10.5619   -0.8496   -0.5131 H   0  0  0  0  0  0  0  0  0  0  0  0
   10.0276   -0.1777    1.0395 H   0  0  0  0  0  0  0  0  0  0  0  0
   -2.5596   -0.5740   -1.0711 H   0  0  0  0  0  0  0  0  0  0  0  0
   -1.7581    2.5182    1.8678 H   0  0  0  0  0  0  0  0  0  0  0  0
    0.4374   -0.9425    1.6660 H   0  0  0  0  0  0  0  0  0  0  0  0
    1.1757   -2.1282    2.6984 H   0  0  0  0  0  0  0  0  0  0  0  0
   11.3237    1.5351   -0.2203 H   0  0  0  0  0  0  0  0  0  0  0  0
   10.2026    1.4002   -1.5970 H   0  0  0  0  0  0  0  0  0  0  0  0
   -3.9603    1.8500    1.3875 H   0  0  0  0  0  0  0  0  0  0  0  0
   -5.9516    1.6487    1.3453 H   0  0  0  0  0  0  0  0  0  0  0  0
    9.7044    3.1361   -0.2227 H   0  0  0  0  0  0  0  0  0  0  0  0
   -8.2791    1.8461    1.7153 H   0  0  0  0  0  0  0  0  0  0  0  0
   -6.7293   -1.0048   -1.1655 H   0  0  0  0  0  0  0  0  0  0  0  0
  -10.5618    1.0981    1.1664 H   0  0  0  0  0  0  0  0  0  0  0  0
   -8.9004   -1.7122   -1.6836 H   0  0  0  0  0  0  0  0  0  0  0  0
  -10.8342   -2.7256   -1.2482 H   0  0  0  0  0  0  0  0  0  0  0  0
  -12.3733   -1.9953   -1.6907 H   0  0  0  0  0  0  0  0  0  0  0  0
  -10.9344   -1.4620   -2.5530 H   0  0  0  0  0  0  0  0  0  0  0  0
  1 12  1  0  0  0  0
  1 18  1  0  0  0  0
  2 28  1  0  0  0  0
  2 53  1  0  0  0  0
  3 29  2  0  0  0  0
  4 33  1  0  0  0  0
  4 36  1  0  0  0  0
  5  7  1  0  0  0  0
  5 20  1  0  0  0  0
  5 24  1  0  0  0  0
  6 17  2  0  0  0  0
  6 19  1  0  0  0  0
  7 21  2  0  0  0  0
  8 17  1  0  0  0  0
  8 47  1  0  0  0  0
  8 48  1  0  0  0  0
  9 25  1  0  0  0  0
  9 29  1  0  0  0  0
  9 51  1  0  0  0  0
 10 29  1  0  0  0  0
 10 30  1  0  0  0  0
 10 52  1  0  0  0  0
 11 12  2  0  0  0  0
 11 13  1  0  0  0  0
 11 17  1  0  0  0  0
 12 14  1  0  0  0  0
 13 16  1  0  0  0  0
 13 18  2  0  0  0  0
 14 15  1  0  0  0  0
 14 19  2  0  0  0  0
 15 20  2  0  0  0  0
 15 21  1  0  0  0  0
 16 22  2  0  0  0  0
 16 23  1  0  0  0  0
 18 37  1  0  0  0  0
 19 38  1  0  0  0  0
 20 39  1  0  0  0  0
 21 40  1  0  0  0  0
 22 26  1  0  0  0  0
 22 41  1  0  0  0  0
 23 27  2  0  0  0  0
 23 42  1  0  0  0  0
 24 28  1  0  0  0  0
 24 43  1  0  0  0  0
 24 44  1  0  0  0  0
 25 26  2  0  0  0  0
 25 27  1  0  0  0  0
 26 45  1  0  0  0  0
 27 46  1  0  0  0  0
 28 49  1  0  0  0  0
 28 50  1  0  0  0  0
 30 31  2  0  0  0  0
 30 32  1  0  0  0  0
 31 34  1  0  0  0  0
 31 54  1  0  0  0  0
 32 35  2  0  0  0  0
 32 55  1  0  0  0  0
 33 34  2  0  0  0  0
 33 35  1  0  0  0  0
 34 56  1  0  0  0  0
 35 57  1  0  0  0  0
 36 58  1  0  0  0  0
 36 59  1  0  0  0  0
 36 60  1  0  0  0  0
M  END
> <PUBCHEM_COMPOUND_CID>
49830363

> <PUBCHEM_CONFORMER_RMSD>
1

> <PUBCHEM_CONFORMER_DIVERSEORDER>
1
37
38
10
15
23
17
5
19
12
36
9
13
32
29
35
39
4
34
31
11
28
7
18
25
27
22
33
16
8
21
26
14
6
24
3
20
30
2

> <PUBCHEM_MMFF94_PARTIAL_CHARGES>
52
1 -0.08
10 -0.55
12 0.04
13 -0.05
14 0.05
15 -0.05
16 0.05
17 0.41
18 -0.11
19 0.16
2 -0.68
20 -0.3
21 0.14
22 -0.15
23 -0.15
24 0.26
25 0.12
26 -0.15
27 -0.15
28 0.28
29 0.69
3 -0.57
30 0.12
31 -0.15
32 -0.15
33 0.08
34 -0.15
35 -0.15
36 0.28
37 0.15
38 0.15
39 0.15
4 -0.36
40 0.15
41 0.15
42 0.15
45 0.15
46 0.15
47 0.4
48 0.4
5 0.31
51 0.37
52 0.37
53 0.4
54 0.15
55 0.15
56 0.15
57 0.15
6 -0.62
7 -0.71
8 -0.9
9 -0.55

> <PUBCHEM_EFFECTIVE_ROTOR_COUNT>
9

> <PUBCHEM_PHARMACOPHORE_FEATURES>
14
1 10 donor
1 2 acceptor
1 2 donor
1 3 acceptor
1 4 acceptor
1 7 acceptor
1 8 donor
1 9 donor
3 6 8 17 cation
5 1 11 12 13 18 rings
5 5 7 15 20 21 rings
6 16 22 23 25 26 27 rings
6 30 31 32 33 34 35 rings
6 6 11 12 14 17 19 rings

> <PUBCHEM_HEAVY_ATOM_COUNT>
36

> <PUBCHEM_ATOM_DEF_STEREO_COUNT>
0

> <PUBCHEM_ATOM_UDEF_STEREO_COUNT>
0

> <PUBCHEM_BOND_DEF_STEREO_COUNT>
0

> <PUBCHEM_BOND_UDEF_STEREO_COUNT>
0

> <PUBCHEM_ISOTOPIC_ATOM_COUNT>
0

> <PUBCHEM_COMPONENT_COUNT>
1

> <PUBCHEM_CACTVS_TAUTO_COUNT>
6

> <PUBCHEM_CONFORMER_ID>
02F859DB00000001

> <PUBCHEM_MMFF94_ENERGY>
114.1765

> <PUBCHEM_FEATURE_SELFOVERLAP>
71.163

> <PUBCHEM_SHAPE_FINGERPRINT>
10076449 9 18259703385383121517
10162869 55 17894633660018488237
10299344 5 18335702729007020067
10533779 47 14476969973692990191
10883706 142 18413107239907271474
11135609 127 14490773285834463134
11409948 35 11530747203835139544
11456790 92 12535626086090233859
11534866 41 16343706517016008174
11607047 74 17987795358167474296
12013929 94 18131633400677341343
12089408 11 18411982416913503161
12144603 126 18413670222896305935
12522641 24 18343579677395572080
12559415 90 13406790038943666375
12664476 115 15791447136963579687
12838862 33 17240482520340747488
13947934 56 18336266864192612547
13947947 74 17676489436951466953
14118638 360 17313378977516400465
14251764 46 18410575080368118132
14251920 17 18201437013570160640
150020 25 15936130760114388641
15065858 18 17703791379588448453
15183329 4 17821444652459173609
15510794 2 16988848267727937911
15840311 113 18343865541934269252
15890870 6 18333448742876679211
16120349 18 18261114102062681772
16728433 110 18410011061754486329
1818759 1 18202565073428555407
20105231 36 17560803204211720918
21362267 2 15864354713160353044
232437 2 17775004587725230047
23522609 53 18194429778664272801
24893992 56 9439107755144849045
249057 3 17676212389906352215
3092352 35 17988926653248819326
335352 9 18114185237064192079
3383291 50 17203607117477206407
4874694 18 16660083299774485426
54039377 194 18202282507598619453
57303763 39 17131826637747278111
6081469 158 11530481138820732614
67123 10 18202566172164651556
9962374 69 18059849593424158909

> <PUBCHEM_SHAPE_MULTIPOLES>
697.22
41.73
1.71
1.43
52.06
0.09
-0.1
-6.65
10.9
-0.75
-0.3
-0.69
-0.45
-2.94

> <PUBCHEM_SHAPE_SELFOVERLAP>
1528.039

> <PUBCHEM_SHAPE_VOLUME>
380.7

> <PUBCHEM_COORDINATE_TYPE>
2
5
10

$$$$
49830344
  -OEChem-05102415023D

 73 76  0     0  0  0  0  0  0999 V2000
   -3.5517    0.2694    1.3508 S   0  0  0  0  0  0  0  0  0  0  0  0
    4.9879   -0.8440   -0.7855 O   0  0  0  0  0  0  0  0  0  0  0  0
   -3.3363   -3.8587    0.6558 N   0  0  0  0  0  0  0  0  0  0  0  0
   -2.5828    3.5677   -1.5207 N   0  0  0  0  0  0  0  0  0  0  0  0
   -0.2849    3.1386   -1.1702 N   0  0  0  0  0  0  0  0  0  0  0  0
    4.4725    0.6741    0.9231 N   0  0  0  0  0  0  0  0  0  0  0  0
    6.6793    0.1478    0.4888 N   0  0  0  0  0  0  0  0  0  0  0  0
   -8.3963   -2.2768   -0.6955 C   0  0  0  0  0  0  0  0  0  0  0  0
   -7.6862   -3.5295   -0.1715 C   0  0  0  0  0  0  0  0  0  0  0  0
   -7.9537   -0.9887    0.0017 C   0  0  0  0  0  0  0  0  0  0  0  0
   -6.1662   -3.5684   -0.3696 C   0  0  0  0  0  0  0  0  0  0  0  0
   -8.7057    0.2287   -0.5495 C   0  0  0  0  0  0  0  0  0  0  0  0
   -5.5257   -4.8822    0.0898 C   0  0  0  0  0  0  0  0  0  0  0  0
   -8.3133    1.5329    0.1493 C   0  0  0  0  0  0  0  0  0  0  0  0
   -4.0065   -4.9144   -0.0941 C   0  0  0  0  0  0  0  0  0  0  0  0
   -1.9750    1.8092   -0.0007 C   0  0  0  0  0  0  0  0  0  0  0  0
   -1.1469    0.9202    0.7630 C   0  0  0  0  0  0  0  0  0  0  0  0
   -3.3309    1.5595    0.2292 C   0  0  0  0  0  0  0  0  0  0  0  0
   -6.8845    1.8342   -0.0165 C   0  0  0  0  0  0  0  0  0  0  0  0
   -4.3265    2.3075   -0.4101 C   0  0  0  0  0  0  0  0  0  0  0  0
    0.2933    0.8565    0.8043 C   0  0  0  0  0  0  0  0  0  0  0  0
   -1.6336    2.8361   -0.8952 C   0  0  0  0  0  0  0  0  0  0  0  0
   -1.8722    0.0417    1.5323 C   0  0  0  0  0  0  0  0  0  0  0  0
   -5.7165    2.0603   -0.1823 C   0  0  0  0  0  0  0  0  0  0  0  0
   -3.8782    3.2942   -1.2706 C   0  0  0  0  0  0  0  0  0  0  0  0
    0.9812    0.0339   -0.0879 C   0  0  0  0  0  0  0  0  0  0  0  0
    0.9987    1.6180    1.7362 C   0  0  0  0  0  0  0  0  0  0  0  0
    3.0792    0.7341    0.8838 C   0  0  0  0  0  0  0  0  0  0  0  0
    2.3740   -0.0273   -0.0482 C   0  0  0  0  0  0  0  0  0  0  0  0
    2.3915    1.5568    1.7761 C   0  0  0  0  0  0  0  0  0  0  0  0
    5.3477   -0.0891    0.1122 C   0  0  0  0  0  0  0  0  0  0  0  0
    7.8542   -0.4128   -0.0657 C   0  0  0  0  0  0  0  0  0  0  0  0
    9.1039   -0.0596    0.4434 C   0  0  0  0  0  0  0  0  0  0  0  0
   10.2614   -0.6147   -0.1023 C   0  0  0  0  0  0  0  0  0  0  0  0
    7.7619   -1.3212   -1.1201 C   0  0  0  0  0  0  0  0  0  0  0  0
   10.1691   -1.5231   -1.1569 C   0  0  0  0  0  0  0  0  0  0  0  0
    8.9194   -1.8762   -1.6658 C   0  0  0  0  0  0  0  0  0  0  0  0
   11.5980   -0.2345    0.4394 C   0  0  0  0  0  0  0  0  0  0  0  0
   -9.4770   -2.4079   -0.5613 H   0  0  0  0  0  0  0  0  0  0  0  0
   -8.2190   -2.1899   -1.7745 H   0  0  0  0  0  0  0  0  0  0  0  0
   -8.1258   -4.4004   -0.6740 H   0  0  0  0  0  0  0  0  0  0  0  0
   -7.9097   -3.6447    0.8966 H   0  0  0  0  0  0  0  0  0  0  0  0
   -6.8775   -0.8510   -0.1421 H   0  0  0  0  0  0  0  0  0  0  0  0
   -8.1312   -1.0752    1.0803 H   0  0  0  0  0  0  0  0  0  0  0  0
   -5.9382   -3.4081   -1.4304 H   0  0  0  0  0  0  0  0  0  0  0  0
   -5.7161   -2.7368    0.1828 H   0  0  0  0  0  0  0  0  0  0  0  0
   -9.7851    0.0767   -0.4279 H   0  0  0  0  0  0  0  0  0  0  0  0
   -8.5143    0.3164   -1.6267 H   0  0  0  0  0  0  0  0  0  0  0  0
   -5.9647   -5.7143   -0.4740 H   0  0  0  0  0  0  0  0  0  0  0  0
   -5.7689   -5.0547    1.1459 H   0  0  0  0  0  0  0  0  0  0  0  0
   -8.5558    1.4675    1.2162 H   0  0  0  0  0  0  0  0  0  0  0  0
   -8.9106    2.3537   -0.2639 H   0  0  0  0  0  0  0  0  0  0  0  0
   -3.7610   -4.8073   -1.1563 H   0  0  0  0  0  0  0  0  0  0  0  0
   -3.6238   -5.8871    0.2337 H   0  0  0  0  0  0  0  0  0  0  0  0
   -3.5395   -3.9619    1.6491 H   0  0  0  0  0  0  0  0  0  0  0  0
   -2.3272   -3.9609    0.5570 H   0  0  0  0  0  0  0  0  0  0  0  0
   -1.5046   -0.7291    2.1969 H   0  0  0  0  0  0  0  0  0  0  0  0
    0.4453   -0.5647   -0.8210 H   0  0  0  0  0  0  0  0  0  0  0  0
    0.4779    2.2654    2.4378 H   0  0  0  0  0  0  0  0  0  0  0  0
   -4.5790    3.9250   -1.8111 H   0  0  0  0  0  0  0  0  0  0  0  0
    2.8318   -0.6868   -0.7715 H   0  0  0  0  0  0  0  0  0  0  0  0
    2.9283    2.1561    2.5071 H   0  0  0  0  0  0  0  0  0  0  0  0
    0.4880    2.6491   -0.7530 H   0  0  0  0  0  0  0  0  0  0  0  0
   -0.0933    3.8882   -1.8223 H   0  0  0  0  0  0  0  0  0  0  0  0
    4.9152    1.2573    1.6290 H   0  0  0  0  0  0  0  0  0  0  0  0
    6.8279    0.8009    1.2539 H   0  0  0  0  0  0  0  0  0  0  0  0
    9.1771    0.6501    1.2644 H   0  0  0  0  0  0  0  0  0  0  0  0
    6.8342   -1.6452   -1.5694 H   0  0  0  0  0  0  0  0  0  0  0  0
   11.0636   -1.9607   -1.5924 H   0  0  0  0  0  0  0  0  0  0  0  0
    8.8489   -2.5832   -2.4874 H   0  0  0  0  0  0  0  0  0  0  0  0
   12.3242   -1.0438    0.3075 H   0  0  0  0  0  0  0  0  0  0  0  0
   11.5430   -0.0259    1.5133 H   0  0  0  0  0  0  0  0  0  0  0  0
   11.9712    0.6575   -0.0735 H   0  0  0  0  0  0  0  0  0  0  0  0
  1 18  1  0  0  0  0
  1 23  1  0  0  0  0
  2 31  2  0  0  0  0
  3 15  1  0  0  0  0
  3 55  1  0  0  0  0
  3 56  1  0  0  0  0
  4 22  2  0  0  0  0
  4 25  1  0  0  0  0
  5 22  1  0  0  0  0
  5 63  1  0  0  0  0
  5 64  1  0  0  0  0
  6 28  1  0  0  0  0
  6 31  1  0  0  0  0
  6 65  1  0  0  0  0
  7 31  1  0  0  0  0
  7 32  1  0  0  0  0
  7 66  1  0  0  0  0
  8  9  1  0  0  0  0
  8 10  1  0  0  0  0
  8 39  1  0  0  0  0
  8 40  1  0  0  0  0
  9 11  1  0  0  0  0
  9 41  1  0  0  0  0
  9 42  1  0  0  0  0
 10 12  1  0  0  0  0
 10 43  1  0  0  0  0
 10 44  1  0  0  0  0
 11 13  1  0  0  0  0
 11 45  1  0  0  0  0
 11 46  1  0  0  0  0
 12 14  1  0  0  0  0
 12 47  1  0  0  0  0
 12 48  1  0  0  0  0
 13 15  1  0  0  0  0
 13 49  1  0  0  0  0
 13 50  1  0  0  0  0
 14 19  1  0  0  0  0
 14 51  1  0  0  0  0
 14 52  1  0  0  0  0
 15 53  1  0  0  0  0
 15 54  1  0  0  0  0
 16 17  1  0  0  0  0
 16 18  2  0  0  0  0
 16 22  1  0  0  0  0
 17 21  1  0  0  0  0
 17 23  2  0  0  0  0
 18 20  1  0  0  0  0
 19 24  3  0  0  0  0
 20 24  1  0  0  0  0
 20 25  2  0  0  0  0
 21 26  2  0  0  0  0
 21 27  1  0  0  0  0
 23 57  1  0  0  0  0
 25 60  1  0  0  0  0
 26 29  1  0  0  0  0
 26 58  1  0  0  0  0
 27 30  2  0  0  0  0
 27 59  1  0  0  0  0
 28 29  2  0  0  0  0
 28 30  1  0  0  0  0
 29 61  1  0  0  0  0
 30 62  1  0  0  0  0
 32 33  1  0  0  0  0
 32 35  2  0  0  0  0
 33 34  2  0  0  0  0
 33 67  1  0  0  0  0
 34 36  1  0  0  0  0
 34 38  1  0  0  0  0
 35 37  1  0  0  0  0
 35 68  1  0  0  0  0
 36 37  2  0  0  0  0
 36 69  1  0  0  0  0
 37 70  1  0  0  0  0
 38 71  1  0  0  0  0
 38 72  1  0  0  0  0
 38 73  1  0  0  0  0
M  END
> <PUBCHEM_COMPOUND_CID>
49830344

> <PUBCHEM_CONFORMER_RMSD>
1.2

> <PUBCHEM_CONFORMER_DIVERSEORDER>
1
136
62
96
59
115
113
36
31
131
105
130
124
48
120
35
138
84
44
134
137
2
83
42
92
40
38
103
51
125
69
99
135
119
45
98
70
133
116
57
81
100
47
104
53
34
129
30
108
56
132
46
67
88
18
121
54
93
87
128
24
126
118
89
127
94
13
111
110
58
78
39
80
95
107
60
114
61
63
77
68
102
25
64
101
55
37
8
109
97
82
123
66
85
50
10
71
41
90
5
52
106
122
112
17
79
27
14
43
16
76
49
29
72
9
75
117
91
12
26
32
86
11
33
73
74
19
6
28
23
21
15
20
7
22
65
3
4

> <PUBCHEM_MMFF94_PARTIAL_CHARGES>
47
1 -0.08
14 0.2
15 0.27
17 -0.05
18 0.04
19 -0.2
2 -0.57
20 0.07
21 0.05
22 0.41
23 -0.11
24 -0.07
25 0.16
26 -0.15
27 -0.15
28 0.12
29 -0.15
3 -0.99
30 -0.15
31 0.69
32 0.12
33 -0.15
34 -0.14
35 -0.15
36 -0.15
37 -0.15
38 0.14
4 -0.62
5 -0.9
55 0.36
56 0.36
57 0.15
58 0.15
59 0.15
6 -0.55
60 0.15
61 0.15
62 0.15
63 0.4
64 0.4
65 0.37
66 0.37
67 0.15
68 0.15
69 0.15
7 -0.55
70 0.15

> <PUBCHEM_EFFECTIVE_ROTOR_COUNT>
12

> <PUBCHEM_PHARMACOPHORE_FEATURES>
11
1 2 acceptor
1 3 cation
1 3 donor
1 5 donor
1 6 donor
1 7 donor
3 4 5 22 cation
5 1 16 17 18 23 rings
6 21 26 27 28 29 30 rings
6 32 33 34 35 36 37 rings
6 4 16 18 20 22 25 rings

> <PUBCHEM_HEAVY_ATOM_COUNT>
38

> <PUBCHEM_ATOM_DEF_STEREO_COUNT>
0

> <PUBCHEM_ATOM_UDEF_STEREO_COUNT>
0

> <PUBCHEM_BOND_DEF_STEREO_COUNT>
0

> <PUBCHEM_BOND_UDEF_STEREO_COUNT>
0

> <PUBCHEM_ISOTOPIC_ATOM_COUNT>
0

> <PUBCHEM_COMPONENT_COUNT>
1

> <PUBCHEM_CACTVS_TAUTO_COUNT>
6

> <PUBCHEM_CONFORMER_ID>
02F859C800000001

> <PUBCHEM_MMFF94_ENERGY>
87.7386

> <PUBCHEM_FEATURE_SELFOVERLAP>
55.936

> <PUBCHEM_SHAPE_FINGERPRINT>
10076449 9 18411139095537577152
10168742 298 18059588949676859084
10299344 5 14835830752690216244
10677351 14 18338243756282106292
11456790 92 11455880390876648383
11756154 67 18408884066714918125
12013929 2 17988357080308718953
13383665 225 18044378459688863604
13947934 56 18341331180352928714
14415361 349 18334016077163131591
15264996 142 18189066429752434747
15274700 232 18409454695733059983
15461852 350 18335140877705734372
15510794 2 18273214193034041312
16989713 51 18409450314792123390
21792965 68 10159711161956668011
23576562 1 18260831540227143284
4017518 198 18413106135816229543
4339292 15 18410853287413144210
44280117 145 18410014342919323764
4516262 110 14706931727194720736
45377200 153 18411699898001783715
4625314 4 18411701023467720768
5028188 123 18410009902124060765
57676310 188 18334290930033774723
6691757 9 17096101203085699297

> <PUBCHEM_SHAPE_MULTIPOLES>
755.1
36.93
5.08
1.33
81.89
6.09
-0.09
24.05
8.54
-15.68
1.31
0.91
-0.55
2.66

> <PUBCHEM_SHAPE_SELFOVERLAP>
1592.438

> <PUBCHEM_SHAPE_VOLUME>
424.2

> <PUBCHEM_COORDINATE_TYPE>
2
5
10

$$$$
49830371
  -OEChem-05102415023D

 52 55  0     0  0  0  0  0  0999 V2000
    4.4950    2.0003   -0.5517 S   0  0  0  0  0  0  0  0  0  0  0  0
  -10.3020   -0.2178    1.1075 F   0  0  0  0  0  0  0  0  0  0  0  0
    7.1753    0.9153   -1.2990 O   0  0  0  0  0  0  0  0  0  0  0  0
   -4.1252    0.0106   -1.2181 O   0  0  0  0  0  0  0  0  0  0  0  0
    4.1954   -2.3876    0.2968 N   0  0  0  0  0  0  0  0  0  0  0  0
    8.0548   -0.7570    0.0452 N   0  0  0  0  0  0  0  0  0  0  0  0
    1.8670   -2.1240    0.6074 N   0  0  0  0  0  0  0  0  0  0  0  0
   -3.2642    0.4570    0.9146 N   0  0  0  0  0  0  0  0  0  0  0  0
   -5.5406    0.1816    0.6357 N   0  0  0  0  0  0  0  0  0  0  0  0
    3.2571   -0.1910    0.0397 C   0  0  0  0  0  0  0  0  0  0  0  0
    2.2740    0.8537    0.0002 C   0  0  0  0  0  0  0  0  0  0  0  0
    4.5322    0.3041   -0.2473 C   0  0  0  0  0  0  0  0  0  0  0  0
    0.8544    0.7528    0.2344 C   0  0  0  0  0  0  0  0  0  0  0  0
    5.6514   -0.5368   -0.2658 C   0  0  0  0  0  0  0  0  0  0  0  0
    3.1250   -1.5621    0.3106 C   0  0  0  0  0  0  0  0  0  0  0  0
    2.8100    2.0818   -0.3069 C   0  0  0  0  0  0  0  0  0  0  0  0
   -0.0106    0.4878   -0.8275 C   0  0  0  0  0  0  0  0  0  0  0  0
    0.3464    0.9191    1.5228 C   0  0  0  0  0  0  0  0  0  0  0  0
    5.4069   -1.8695    0.0155 C   0  0  0  0  0  0  0  0  0  0  0  0
   -1.8913    0.5563    0.6875 C   0  0  0  0  0  0  0  0  0  0  0  0
    6.9936   -0.0692   -0.5582 C   0  0  0  0  0  0  0  0  0  0  0  0
   -1.3833    0.3897   -0.6010 C   0  0  0  0  0  0  0  0  0  0  0  0
   -1.0263    0.8210    1.7494 C   0  0  0  0  0  0  0  0  0  0  0  0
    9.4442   -0.3986   -0.1287 C   0  0  0  0  0  0  0  0  0  0  0  0
   -4.2978    0.1959   -0.0177 C   0  0  0  0  0  0  0  0  0  0  0  0
    9.8317    0.7662    0.7585 C   0  0  0  0  0  0  0  0  0  0  0  0
   -6.8187   -0.0418    0.0713 C   0  0  0  0  0  0  0  0  0  0  0  0
   -7.9525   -0.0192    0.8835 C   0  0  0  0  0  0  0  0  0  0  0  0
   -6.9451   -0.2859   -1.2962 C   0  0  0  0  0  0  0  0  0  0  0  0
   -9.2127   -0.2405    0.3282 C   0  0  0  0  0  0  0  0  0  0  0  0
   -8.2053   -0.5073   -1.8515 C   0  0  0  0  0  0  0  0  0  0  0  0
   -9.3391   -0.4848   -1.0393 C   0  0  0  0  0  0  0  0  0  0  0  0
    2.2997    3.0311   -0.4023 H   0  0  0  0  0  0  0  0  0  0  0  0
    0.3706    0.3542   -1.8373 H   0  0  0  0  0  0  0  0  0  0  0  0
    1.0072    1.1245    2.3617 H   0  0  0  0  0  0  0  0  0  0  0  0
    6.1952   -2.6163    0.0033 H   0  0  0  0  0  0  0  0  0  0  0  0
   -1.9855    0.1824   -1.4740 H   0  0  0  0  0  0  0  0  0  0  0  0
   -1.4082    0.9524    2.7586 H   0  0  0  0  0  0  0  0  0  0  0  0
    7.8610   -1.5167    0.6895 H   0  0  0  0  0  0  0  0  0  0  0  0
    1.0163   -1.5890    0.6413 H   0  0  0  0  0  0  0  0  0  0  0  0
    1.8269   -3.1174    0.7954 H   0  0  0  0  0  0  0  0  0  0  0  0
   -3.5582    0.5901    1.8791 H   0  0  0  0  0  0  0  0  0  0  0  0
    9.6128   -0.1429   -1.1799 H   0  0  0  0  0  0  0  0  0  0  0  0
   10.0449   -1.2805    0.1142 H   0  0  0  0  0  0  0  0  0  0  0  0
    9.6599    0.5283    1.8136 H   0  0  0  0  0  0  0  0  0  0  0  0
    9.2468    1.6607    0.5206 H   0  0  0  0  0  0  0  0  0  0  0  0
   10.8912    1.0079    0.6299 H   0  0  0  0  0  0  0  0  0  0  0  0
   -5.5312    0.3517    1.6381 H   0  0  0  0  0  0  0  0  0  0  0  0
   -7.8683    0.1698    1.9506 H   0  0  0  0  0  0  0  0  0  0  0  0
   -6.1177   -0.3197   -1.9904 H   0  0  0  0  0  0  0  0  0  0  0  0
   -8.3054   -0.6975   -2.9162 H   0  0  0  0  0  0  0  0  0  0  0  0
  -10.3204   -0.6570   -1.4713 H   0  0  0  0  0  0  0  0  0  0  0  0
  1 12  1  0  0  0  0
  1 16  1  0  0  0  0
  2 30  1  0  0  0  0
  3 21  2  0  0  0  0
  4 25  2  0  0  0  0
  5 15  2  0  0  0  0
  5 19  1  0  0  0  0
  6 21  1  0  0  0  0
  6 24  1  0  0  0  0
  6 39  1  0  0  0  0
  7 15  1  0  0  0  0
  7 40  1  0  0  0  0
  7 41  1  0  0  0  0
  8 20  1  0  0  0  0
  8 25  1  0  0  0  0
  8 42  1  0  0  0  0
  9 25  1  0  0  0  0
  9 27  1  0  0  0  0
  9 48  1  0  0  0  0
 10 11  1  0  0  0  0
 10 12  2  0  0  0  0
 10 15  1  0  0  0  0
 11 13  1  0  0  0  0
 11 16  2  0  0  0  0
 12 14  1  0  0  0  0
 13 17  2  0  0  0  0
 13 18  1  0  0  0  0
 14 19  2  0  0  0  0
 14 21  1  0  0  0  0
 16 33  1  0  0  0  0
 17 22  1  0  0  0  0
 17 34  1  0  0  0  0
 18 23  2  0  0  0  0
 18 35  1  0  0  0  0
 19 36  1  0  0  0  0
 20 22  2  0  0  0  0
 20 23  1  0  0  0  0
 22 37  1  0  0  0  0
 23 38  1  0  0  0  0
 24 26  1  0  0  0  0
 24 43  1  0  0  0  0
 24 44  1  0  0  0  0
 26 45  1  0  0  0  0
 26 46  1  0  0  0  0
 26 47  1  0  0  0  0
 27 28  2  0  0  0  0
 27 29  1  0  0  0  0
 28 30  1  0  0  0  0
 28 49  1  0  0  0  0
 29 31  2  0  0  0  0
 29 50  1  0  0  0  0
 30 32  2  0  0  0  0
 31 32  1  0  0  0  0
 31 51  1  0  0  0  0
 32 52  1  0  0  0  0
M  END
> <PUBCHEM_COMPOUND_CID>
49830371

> <PUBCHEM_CONFORMER_RMSD>
1

> <PUBCHEM_CONFORMER_DIVERSEORDER>
1
30
19
33
39
38
15
35
40
6
27
7
36
25
13
8
4
21
26
34
5
18
22
11
37
2
32
28
3
14
9
20
12
23
16
10
29
31
24
17

> <PUBCHEM_MMFF94_PARTIAL_CHARGES>
45
1 -0.08
11 -0.05
12 0.04
13 0.05
14 0.09
15 0.41
16 -0.11
17 -0.15
18 -0.15
19 0.16
2 -0.19
20 0.12
21 0.54
22 -0.15
23 -0.15
24 0.3
25 0.69
27 0.12
28 -0.15
29 -0.15
3 -0.57
30 0.19
31 -0.15
32 -0.15
33 0.15
34 0.15
35 0.15
36 0.15
37 0.15
38 0.15
39 0.37
4 -0.57
40 0.4
41 0.4
42 0.37
48 0.37
49 0.15
5 -0.62
50 0.15
51 0.15
52 0.15
6 -0.73
7 -0.9
8 -0.55
9 -0.55

> <PUBCHEM_EFFECTIVE_ROTOR_COUNT>
8

> <PUBCHEM_PHARMACOPHORE_FEATURES>
11
1 3 acceptor
1 4 acceptor
1 6 donor
1 7 donor
1 8 donor
1 9 donor
3 5 7 15 cation
5 1 10 11 12 16 rings
6 13 17 18 20 22 23 rings
6 27 28 29 30 31 32 rings
6 5 10 12 14 15 19 rings

> <PUBCHEM_HEAVY_ATOM_COUNT>
32

> <PUBCHEM_ATOM_DEF_STEREO_COUNT>
0

> <PUBCHEM_ATOM_UDEF_STEREO_COUNT>
0

> <PUBCHEM_BOND_DEF_STEREO_COUNT>
0

> <PUBCHEM_BOND_UDEF_STEREO_COUNT>
0

> <PUBCHEM_ISOTOPIC_ATOM_COUNT>
0

> <PUBCHEM_COMPONENT_COUNT>
1

> <PUBCHEM_CACTVS_TAUTO_COUNT>
21

> <PUBCHEM_CONFORMER_ID>
02F859E300000001

> <PUBCHEM_MMFF94_ENERGY>
96.8423

> <PUBCHEM_FEATURE_SELFOVERLAP>
55.936

> <PUBCHEM_SHAPE_FINGERPRINT>
10050765 1 16413208984160637197
10162869 55 18409165528305417548
10299344 5 18202283602767579607
106641 1 16200148798968587240
11135609 127 15502670338299062886
12089408 11 17632860827823614164
12144603 126 17847064380717822329
12236239 1 17988648450551774360
12522641 24 17489581299620382840
12741549 16 17603861209691523756
12838862 33 18261101990085608242
13383668 1 18189050907957423550
14040221 8 15285643149988528030
14118638 360 18187359883851249033
14150022 121 13398642623670437563
14251764 18 18202565073201396687
14251764 46 18410575088958046211
14344974 52 15791739640878346100
150020 25 17530966886908367611
15183329 4 18408036308932206459
15198563 99 17531804650429335413
15247644 1 18410013230164818730
15419008 47 17240475919298462765
15510794 2 17603591854800363219
15840311 113 17560798866933198248
16120349 18 18342455980996810432
16728433 110 18272086123430827193
16728433 281 17315340446474229757
1818759 1 17846785109344489591
19841028 212 18129664093305219126
20105231 36 17385729115146902315
21150785 3 17458064863629373111
21792934 111 16057158406354877496
22956985 138 16842499837986259102
232437 2 17632297865750078278
23522609 53 17844835709963358145
23576562 1 13985531217471723391
24771293 8 12829481525222297615
24893992 56 12612762336714917429
249057 3 18333732450486387871
335352 9 18408047317086263204
335507 130 18259702307192947037
3383291 50 15410890804451965575
3633792 109 18334295345038017385
4098825 35 18335137545576224405
45377200 153 18042406997687876307
5219985 9 17917711301659652025
5381727 24 13984661455785551977
57303763 39 14763769962378956404
5937810 71 17095516242221282829
59520757 100 16081664381887066738
59682541 35 14405181772366450986
6081469 158 16877941629561941782
67123 10 17060620005795912192
9663363 56 16056880222225130153

> <PUBCHEM_SHAPE_MULTIPOLES>
618.48
34.24
1.57
1.26
34.87
0.32
-0.03
5.94
-3.57
-3.06
0.09
1.74
-0.14
-1.19

> <PUBCHEM_SHAPE_SELFOVERLAP>
1345.917

> <PUBCHEM_SHAPE_VOLUME>
340.9

> <PUBCHEM_COORDINATE_TYPE>
2
5
10

$$$$
18451141
  -OEChem-05102415023D

 58 61  0     0  0  0  0  0  0999 V2000
   -4.1855    1.7574    0.1915 S   0  0  0  0  0  0  0  0  0  0  0  0
    4.4592    0.3331   -1.2056 O   0  0  0  0  0  0  0  0  0  0  0  0
   -3.7215   -2.6894   -0.0773 N   0  0  0  0  0  0  0  0  0  0  0  0
    3.6681    0.2058    0.9961 N   0  0  0  0  0  0  0  0  0  0  0  0
   -1.3912   -2.4199    0.2132 N   0  0  0  0  0  0  0  0  0  0  0  0
   -9.5835    0.3945   -1.8076 N   0  0  0  0  0  0  0  0  0  0  0  0
    5.9396    0.0993    0.5897 N   0  0  0  0  0  0  0  0  0  0  0  0
   -2.8599   -0.4621    0.1851 C   0  0  0  0  0  0  0  0  0  0  0  0
   -1.9107    0.5975    0.3727 C   0  0  0  0  0  0  0  0  0  0  0  0
   -4.1598    0.0382    0.0697 C   0  0  0  0  0  0  0  0  0  0  0  0
   -0.4809    0.4971    0.5324 C   0  0  0  0  0  0  0  0  0  0  0  0
   -2.4951    1.8416    0.3947 C   0  0  0  0  0  0  0  0  0  0  0  0
   -5.2533   -0.8151   -0.1199 C   0  0  0  0  0  0  0  0  0  0  0  0
   -2.6763   -1.8517    0.1057 C   0  0  0  0  0  0  0  0  0  0  0  0
   -9.0868    0.6245   -0.4477 C   0  0  0  0  0  0  0  0  0  0  0  0
    0.0707    0.3617    1.8064 C   0  0  0  0  0  0  0  0  0  0  0  0
    0.3505    0.5353   -0.5870 C   0  0  0  0  0  0  0  0  0  0  0  0
    2.2850    0.3029    0.8414 C   0  0  0  0  0  0  0  0  0  0  0  0
   -4.9581   -2.1655   -0.1835 C   0  0  0  0  0  0  0  0  0  0  0  0
    1.4536    0.2644    1.9608 C   0  0  0  0  0  0  0  0  0  0  0  0
    1.7334    0.4384   -0.4325 C   0  0  0  0  0  0  0  0  0  0  0  0
   -9.9993   -0.0940    0.5538 C   0  0  0  0  0  0  0  0  0  0  0  0
   -9.0951    2.1335   -0.1759 C   0  0  0  0  0  0  0  0  0  0  0  0
   -6.5879   -0.3142   -0.2361 C   0  0  0  0  0  0  0  0  0  0  0  0
   -7.7093    0.1067   -0.3329 C   0  0  0  0  0  0  0  0  0  0  0  0
    4.6725    0.2241   -0.0024 C   0  0  0  0  0  0  0  0  0  0  0  0
    7.2011    0.0731   -0.0503 C   0  0  0  0  0  0  0  0  0  0  0  0
    9.6086   -0.0854    0.0756 C   0  0  0  0  0  0  0  0  0  0  0  0
    8.3651   -0.0599    0.7069 C   0  0  0  0  0  0  0  0  0  0  0  0
    7.2808    0.1802   -1.4388 C   0  0  0  0  0  0  0  0  0  0  0  0
    9.6882    0.0218   -1.3128 C   0  0  0  0  0  0  0  0  0  0  0  0
    8.5243    0.1545   -2.0701 C   0  0  0  0  0  0  0  0  0  0  0  0
   10.8535   -0.2284    0.8846 C   0  0  0  0  0  0  0  0  0  0  0  0
   -2.0175    2.8045    0.5202 H   0  0  0  0  0  0  0  0  0  0  0  0
   -0.5633    0.3288    2.6893 H   0  0  0  0  0  0  0  0  0  0  0  0
   -0.0649    0.6391   -1.5869 H   0  0  0  0  0  0  0  0  0  0  0  0
   -5.7435   -2.9029   -0.3280 H   0  0  0  0  0  0  0  0  0  0  0  0
    1.8698    0.1587    2.9595 H   0  0  0  0  0  0  0  0  0  0  0  0
    2.3074    0.4756   -1.3473 H   0  0  0  0  0  0  0  0  0  0  0  0
  -11.0318    0.2682    0.4855 H   0  0  0  0  0  0  0  0  0  0  0  0
  -10.0130   -1.1772    0.3811 H   0  0  0  0  0  0  0  0  0  0  0  0
   -9.6592    0.0646    1.5845 H   0  0  0  0  0  0  0  0  0  0  0  0
  -10.1050    2.5511   -0.2641 H   0  0  0  0  0  0  0  0  0  0  0  0
   -8.4472    2.6745   -0.8768 H   0  0  0  0  0  0  0  0  0  0  0  0
   -8.7318    2.3558    0.8349 H   0  0  0  0  0  0  0  0  0  0  0  0
    3.9949    0.1094    1.9544 H   0  0  0  0  0  0  0  0  0  0  0  0
   -0.5559   -1.8769    0.3488 H   0  0  0  0  0  0  0  0  0  0  0  0
   -1.3138   -3.4267    0.1482 H   0  0  0  0  0  0  0  0  0  0  0  0
   -9.5739   -0.6015   -2.0241 H   0  0  0  0  0  0  0  0  0  0  0  0
   -8.9778    0.8506   -2.4887 H   0  0  0  0  0  0  0  0  0  0  0  0
    5.9637    0.0164    1.6029 H   0  0  0  0  0  0  0  0  0  0  0  0
    8.3043   -0.1420    1.7898 H   0  0  0  0  0  0  0  0  0  0  0  0
    6.4283    0.2860   -2.0942 H   0  0  0  0  0  0  0  0  0  0  0  0
   10.6511    0.0051   -1.8165 H   0  0  0  0  0  0  0  0  0  0  0  0
    8.5878    0.2383   -3.1512 H   0  0  0  0  0  0  0  0  0  0  0  0
   11.2106    0.7564    1.2014 H   0  0  0  0  0  0  0  0  0  0  0  0
   10.6765   -0.8418    1.7747 H   0  0  0  0  0  0  0  0  0  0  0  0
   11.6458   -0.7199    0.3097 H   0  0  0  0  0  0  0  0  0  0  0  0
  1 10  1  0  0  0  0
  1 12  1  0  0  0  0
  2 26  2  0  0  0  0
  3 14  2  0  0  0  0
  3 19  1  0  0  0  0
  4 18  1  0  0  0  0
  4 26  1  0  0  0  0
  4 46  1  0  0  0  0
  5 14  1  0  0  0  0
  5 47  1  0  0  0  0
  5 48  1  0  0  0  0
  6 15  1  0  0  0  0
  6 49  1  0  0  0  0
  6 50  1  0  0  0  0
  7 26  1  0  0  0  0
  7 27  1  0  0  0  0
  7 51  1  0  0  0  0
  8  9  1  0  0  0  0
  8 10  2  0  0  0  0
  8 14  1  0  0  0  0
  9 11  1  0  0  0  0
  9 12  2  0  0  0  0
 10 13  1  0  0  0  0
 11 16  2  0  0  0  0
 11 17  1  0  0  0  0
 12 34  1  0  0  0  0
 13 19  2  0  0  0  0
 13 24  1  0  0  0  0
 15 22  1  0  0  0  0
 15 23  1  0  0  0  0
 15 25  1  0  0  0  0
 16 20  1  0  0  0  0
 16 35  1  0  0  0  0
 17 21  2  0  0  0  0
 17 36  1  0  0  0  0
 18 20  2  0  0  0  0
 18 21  1  0  0  0  0
 19 37  1  0  0  0  0
 20 38  1  0  0  0  0
 21 39  1  0  0  0  0
 22 40  1  0  0  0  0
 22 41  1  0  0  0  0
 22 42  1  0  0  0  0
 23 43  1  0  0  0  0
 23 44  1  0  0  0  0
 23 45  1  0  0  0  0
 24 25  3  0  0  0  0
 27 29  1  0  0  0  0
 27 30  2  0  0  0  0
 28 29  2  0  0  0  0
 28 31  1  0  0  0  0
 28 33  1  0  0  0  0
 29 52  1  0  0  0  0
 30 32  1  0  0  0  0
 30 53  1  0  0  0  0
 31 32  2  0  0  0  0
 31 54  1  0  0  0  0
 32 55  1  0  0  0  0
 33 56  1  0  0  0  0
 33 57  1  0  0  0  0
 33 58  1  0  0  0  0
M  END
> <PUBCHEM_COMPOUND_CID>
18451141

> <PUBCHEM_CONFORMER_RMSD>
0.8

> <PUBCHEM_CONFORMER_DIVERSEORDER>
2
19
22
14
10
13
17
18
26
9
8
12
6
11
20
5
15
16
4
3
24
7
25
1
27
23
21

> <PUBCHEM_MMFF94_PARTIAL_CHARGES>
46
1 -0.08
10 0.04
11 0.05
12 -0.11
13 0.07
14 0.41
15 0.47
16 -0.15
17 -0.15
18 0.12
19 0.16
2 -0.57
20 -0.15
21 -0.15
24 -0.07
25 -0.2
26 0.69
27 0.12
28 -0.14
29 -0.15
3 -0.62
30 -0.15
31 -0.15
32 -0.15
33 0.14
34 0.15
35 0.15
36 0.15
37 0.15
38 0.15
39 0.15
4 -0.55
46 0.37
47 0.4
48 0.4
49 0.36
5 -0.9
50 0.36
51 0.37
52 0.15
53 0.15
54 0.15
55 0.15
6 -0.99
7 -0.55
9 -0.05

> <PUBCHEM_EFFECTIVE_ROTOR_COUNT>
5

> <PUBCHEM_PHARMACOPHORE_FEATURES>
12
1 2 acceptor
1 4 donor
1 5 donor
1 6 cation
1 6 donor
1 7 donor
3 15 22 23 hydrophobe
3 3 5 14 cation
5 1 8 9 10 12 rings
6 11 16 17 18 20 21 rings
6 27 28 29 30 31 32 rings
6 3 8 10 13 14 19 rings

> <PUBCHEM_HEAVY_ATOM_COUNT>
33

> <PUBCHEM_ATOM_DEF_STEREO_COUNT>
0

> <PUBCHEM_ATOM_UDEF_STEREO_COUNT>
0

> <PUBCHEM_BOND_DEF_STEREO_COUNT>
0

> <PUBCHEM_BOND_UDEF_STEREO_COUNT>
0

> <PUBCHEM_ISOTOPIC_ATOM_COUNT>
0

> <PUBCHEM_COMPONENT_COUNT>
1

> <PUBCHEM_CACTVS_TAUTO_COUNT>
6

> <PUBCHEM_CONFORMER_ID>
01198AC500000002

> <PUBCHEM_MMFF94_ENERGY>
91.7445

> <PUBCHEM_FEATURE_SELFOVERLAP>
61.01

> <PUBCHEM_SHAPE_FINGERPRINT>
10076449 9 18202565068996568137
10299344 5 18113618993846820186
106641 1 11959730477903290024
10674148 151 18411416228412296699
11410812 94 13686307834340492163
12089408 11 17821729463876640030
12144603 126 17822009800301765488
12522641 33 17603586309744935458
12559415 135 18407760336051818792
12643181 29 18202564011928405839
12741549 16 16415760825562255857
12758862 11 18131066073772132921
13947947 74 18272373057653505139
14040221 8 18412832373962881588
14251764 46 18407759235410796352
14294032 229 18262234401321906501
15065858 18 17704070707577246750
15183329 4 17022618702871969586
15247644 1 16128657457144181286
15392192 104 11312059846996845060
15419008 91 18059277817925498240
15510794 2 17418095395672750140
16087824 20 18336262346219644957
20105231 36 18261397784430848547
20609170 92 18262511469772019533
21360443 120 18040714745179441275
21360443 89 8790590508890819905
21792934 111 16774072986837405704
21792961 116 17561367253259902049
232437 2 17967533484653879339
23559900 14 18199460146796264161
249057 3 18409450310201555572
3092352 35 17312822693320594123
335352 9 18410569596702404423
4017518 198 17917991685941770087
4625314 4 18059852921485827368
57828716 8 13686292466462417981
58083652 198 16200153244196747866
58902169 19 17676773175766313542
59521270 166 18335699412949642797
59521660 218 17676759865341312667
59682541 35 11674879996189883927
6126387 218 15554453981281056801
6691757 9 18341342137025751163
67123 10 15719393936355532337
9663363 56 17132112442878963872
9962374 69 15625929964065146928

> <PUBCHEM_SHAPE_MULTIPOLES>
652.2
38.48
1.64
1.35
33.76
0.73
0.13
-3.62
10.76
-4.1
-0.05
2.02
-0.16
0.16

> <PUBCHEM_SHAPE_SELFOVERLAP>
1410.955

> <PUBCHEM_SHAPE_VOLUME>
359.7

> <PUBCHEM_COORDINATE_TYPE>
2
5
10

$$$$
18451176
  -OEChem-05102415023D

 58 61  0     0  0  0  0  0  0999 V2000
   -4.2234    1.2466    1.0023 S   0  0  0  0  0  0  0  0  0  0  0  0
    4.4109    0.8089   -0.9850 O   0  0  0  0  0  0  0  0  0  0  0  0
   -3.6491   -2.7087   -1.0192 N   0  0  0  0  0  0  0  0  0  0  0  0
    3.6888   -0.2114    0.9966 N   0  0  0  0  0  0  0  0  0  0  0  0
   -1.3194   -2.4933   -0.6823 N   0  0  0  0  0  0  0  0  0  0  0  0
    5.9493   -0.0660    0.5436 N   0  0  0  0  0  0  0  0  0  0  0  0
   -9.2882    1.5210   -0.7033 N   0  0  0  0  0  0  0  0  0  0  0  0
   -1.9143    0.1925    0.6715 C   0  0  0  0  0  0  0  0  0  0  0  0
   -2.8399   -0.7391    0.0932 C   0  0  0  0  0  0  0  0  0  0  0  0
   -0.4782    0.0882    0.7555 C   0  0  0  0  0  0  0  0  0  0  0  0
   -4.1555   -0.2809    0.2068 C   0  0  0  0  0  0  0  0  0  0  0  0
   -2.5305    1.3039    1.1955 C   0  0  0  0  0  0  0  0  0  0  0  0
   -2.6218   -1.9755   -0.5349 C   0  0  0  0  0  0  0  0  0  0  0  0
   -5.2309   -1.0276   -0.2891 C   0  0  0  0  0  0  0  0  0  0  0  0
    0.1144   -0.5215    1.8614 C   0  0  0  0  0  0  0  0  0  0  0  0
    0.3181    0.5983   -0.2697 C   0  0  0  0  0  0  0  0  0  0  0  0
    2.2997   -0.1107    0.9165 C   0  0  0  0  0  0  0  0  0  0  0  0
    1.5033   -0.6210    1.9419 C   0  0  0  0  0  0  0  0  0  0  0  0
    1.7070    0.4989   -0.1892 C   0  0  0  0  0  0  0  0  0  0  0  0
   -4.9018   -2.2304   -0.8889 C   0  0  0  0  0  0  0  0  0  0  0  0
   -6.5749   -0.5719   -0.1761 C   0  0  0  0  0  0  0  0  0  0  0  0
    4.6624    0.2383    0.0715 C   0  0  0  0  0  0  0  0  0  0  0  0
    7.1917    0.2098   -0.0747 C   0  0  0  0  0  0  0  0  0  0  0  0
    9.6051    0.1031   -0.0622 C   0  0  0  0  0  0  0  0  0  0  0  0
    8.3808   -0.1702    0.5476 C   0  0  0  0  0  0  0  0  0  0  0  0
   -9.0929    0.2808    0.0368 C   0  0  0  0  0  0  0  0  0  0  0  0
    7.2270    0.8628   -1.3068 C   0  0  0  0  0  0  0  0  0  0  0  0
   -7.7087   -0.1862   -0.0816 C   0  0  0  0  0  0  0  0  0  0  0  0
    9.6406    0.7562   -1.2942 C   0  0  0  0  0  0  0  0  0  0  0  0
    8.4514    1.1360   -1.9164 C   0  0  0  0  0  0  0  0  0  0  0  0
   10.8769   -0.3012    0.6039 C   0  0  0  0  0  0  0  0  0  0  0  0
  -10.7017    1.7055   -1.0379 C   0  0  0  0  0  0  0  0  0  0  0  0
   -8.7960    2.6647    0.0670 C   0  0  0  0  0  0  0  0  0  0  0  0
   -2.0755    2.1544    1.6858 H   0  0  0  0  0  0  0  0  0  0  0  0
   -0.4921   -0.9253    2.6686 H   0  0  0  0  0  0  0  0  0  0  0  0
   -0.1293    1.0752   -1.1388 H   0  0  0  0  0  0  0  0  0  0  0  0
    1.9517   -1.0992    2.8091 H   0  0  0  0  0  0  0  0  0  0  0  0
    2.2526    0.9172   -1.0229 H   0  0  0  0  0  0  0  0  0  0  0  0
   -5.6709   -2.8778   -1.3023 H   0  0  0  0  0  0  0  0  0  0  0  0
    4.0463   -0.6689    1.8317 H   0  0  0  0  0  0  0  0  0  0  0  0
   -1.2173   -3.3883   -1.1434 H   0  0  0  0  0  0  0  0  0  0  0  0
   -0.4953   -2.0192   -0.3553 H   0  0  0  0  0  0  0  0  0  0  0  0
    6.0055   -0.5437    1.4395 H   0  0  0  0  0  0  0  0  0  0  0  0
    8.3546   -0.6774    1.5094 H   0  0  0  0  0  0  0  0  0  0  0  0
   -9.7269   -0.5115   -0.3834 H   0  0  0  0  0  0  0  0  0  0  0  0
   -9.3861    0.3797    1.0895 H   0  0  0  0  0  0  0  0  0  0  0  0
    6.3529    1.1889   -1.8517 H   0  0  0  0  0  0  0  0  0  0  0  0
   10.5881    0.9768   -1.7784 H   0  0  0  0  0  0  0  0  0  0  0  0
    8.4803    1.6452   -2.8756 H   0  0  0  0  0  0  0  0  0  0  0  0
   11.6646   -0.4974   -0.1315 H   0  0  0  0  0  0  0  0  0  0  0  0
   10.7433   -1.2214    1.1828 H   0  0  0  0  0  0  0  0  0  0  0  0
   11.2167    0.4918    1.2774 H   0  0  0  0  0  0  0  0  0  0  0  0
  -11.0591    0.8867   -1.6724 H   0  0  0  0  0  0  0  0  0  0  0  0
  -10.8442    2.6281   -1.6117 H   0  0  0  0  0  0  0  0  0  0  0  0
  -11.3346    1.7534   -0.1441 H   0  0  0  0  0  0  0  0  0  0  0  0
   -7.7259    2.5695    0.2813 H   0  0  0  0  0  0  0  0  0  0  0  0
   -9.3289    2.7861    1.0174 H   0  0  0  0  0  0  0  0  0  0  0  0
   -8.9123    3.5899   -0.5090 H   0  0  0  0  0  0  0  0  0  0  0  0
  1 11  1  0  0  0  0
  1 12  1  0  0  0  0
  2 22  2  0  0  0  0
  3 13  2  0  0  0  0
  3 20  1  0  0  0  0
  4 17  1  0  0  0  0
  4 22  1  0  0  0  0
  4 40  1  0  0  0  0
  5 13  1  0  0  0  0
  5 41  1  0  0  0  0
  5 42  1  0  0  0  0
  6 22  1  0  0  0  0
  6 23  1  0  0  0  0
  6 43  1  0  0  0  0
  7 26  1  0  0  0  0
  7 32  1  0  0  0  0
  7 33  1  0  0  0  0
  8  9  1  0  0  0  0
  8 10  1  0  0  0  0
  8 12  2  0  0  0  0
  9 11  2  0  0  0  0
  9 13  1  0  0  0  0
 10 15  2  0  0  0  0
 10 16  1  0  0  0  0
 11 14  1  0  0  0  0
 12 34  1  0  0  0  0
 14 20  2  0  0  0  0
 14 21  1  0  0  0  0
 15 18  1  0  0  0  0
 15 35  1  0  0  0  0
 16 19  2  0  0  0  0
 16 36  1  0  0  0  0
 17 18  2  0  0  0  0
 17 19  1  0  0  0  0
 18 37  1  0  0  0  0
 19 38  1  0  0  0  0
 20 39  1  0  0  0  0
 21 28  3  0  0  0  0
 23 25  1  0  0  0  0
 23 27  2  0  0  0  0
 24 25  2  0  0  0  0
 24 29  1  0  0  0  0
 24 31  1  0  0  0  0
 25 44  1  0  0  0  0
 26 28  1  0  0  0  0
 26 45  1  0  0  0  0
 26 46  1  0  0  0  0
 27 30  1  0  0  0  0
 27 47  1  0  0  0  0
 29 30  2  0  0  0  0
 29 48  1  0  0  0  0
 30 49  1  0  0  0  0
 31 50  1  0  0  0  0
 31 51  1  0  0  0  0
 31 52  1  0  0  0  0
 32 53  1  0  0  0  0
 32 54  1  0  0  0  0
 32 55  1  0  0  0  0
 33 56  1  0  0  0  0
 33 57  1  0  0  0  0
 33 58  1  0  0  0  0
M  END
> <PUBCHEM_COMPOUND_CID>
18451176

> <PUBCHEM_CONFORMER_RMSD>
0.8

> <PUBCHEM_CONFORMER_DIVERSEORDER>
1
26
7
11
15
4
27
8
24
31
10
2
29
13
9
18
12
22
3
30
20
25
5
17
32
6
14
19
28
16
23
21

> <PUBCHEM_MMFF94_PARTIAL_CHARGES>
46
1 -0.08
10 0.05
11 0.04
12 -0.11
13 0.41
14 0.07
15 -0.15
16 -0.15
17 0.12
18 -0.15
19 -0.15
2 -0.57
20 0.16
21 -0.07
22 0.69
23 0.12
24 -0.14
25 -0.15
26 0.47
27 -0.15
28 -0.2
29 -0.15
3 -0.62
30 -0.15
31 0.14
32 0.27
33 0.27
34 0.15
35 0.15
36 0.15
37 0.15
38 0.15
39 0.15
4 -0.55
40 0.37
41 0.4
42 0.4
43 0.37
44 0.15
47 0.15
48 0.15
49 0.15
5 -0.9
6 -0.55
7 -0.81
8 -0.05

> <PUBCHEM_EFFECTIVE_ROTOR_COUNT>
6

> <PUBCHEM_PHARMACOPHORE_FEATURES>
10
1 2 acceptor
1 4 donor
1 5 donor
1 6 donor
1 7 cation
3 3 5 13 cation
5 1 8 9 11 12 rings
6 10 15 16 17 18 19 rings
6 23 24 25 27 29 30 rings
6 3 9 11 13 14 20 rings

> <PUBCHEM_HEAVY_ATOM_COUNT>
33

> <PUBCHEM_ATOM_DEF_STEREO_COUNT>
0

> <PUBCHEM_ATOM_UDEF_STEREO_COUNT>
0

> <PUBCHEM_BOND_DEF_STEREO_COUNT>
0

> <PUBCHEM_BOND_UDEF_STEREO_COUNT>
0

> <PUBCHEM_ISOTOPIC_ATOM_COUNT>
0

> <PUBCHEM_COMPONENT_COUNT>
1

> <PUBCHEM_CACTVS_TAUTO_COUNT>
6

> <PUBCHEM_CONFORMER_ID>
01198AE800000001

> <PUBCHEM_MMFF94_ENERGY>
100.9357

> <PUBCHEM_FEATURE_SELFOVERLAP>
50.86

> <PUBCHEM_SHAPE_FINGERPRINT>
10162869 55 12967127220717473832
10190206 1 17846503578939535777
10299344 5 18408886257306526982
106641 1 9367347037440806962
10674148 151 18341890818116685202
11410812 94 13182750209122638491
11828042 53 17913774920883359529
12089408 11 18186518825853665194
12144603 126 18186518795651536307
12522641 33 18334016073543534274
12643181 29 17632577192594885719
12664476 115 14779265328151125284
12758862 11 17632291315265816395
12838862 33 16917064460812722598
13947947 74 17846781802145779563
14040221 8 18130795550925999832
14117953 113 18131912667819432973
14251764 46 18410575088958046218
14294032 229 18339360739663659489
14428016 248 17675927594846491133
15065858 18 17203608203375619718
15183329 4 17894628189306404034
15198563 99 17489597718468712969
15247644 1 13901907816922779988
15419008 91 17418081110917999416
15510794 2 16702028565685505606
16087824 20 18411980222982475217
20501277 279 14345792739210192573
20609170 92 18201160932739597029
20721686 146 17969493816104595149
21360443 120 18408323272260878555
21360443 89 7781504912100792097
21781055 127 18260542295511565880
21792961 116 16630250233608543585
23559900 14 17702373138885808785
249057 3 18273216430279687048
3092352 35 17894348900135991267
335352 9 18201432585268337615
4017518 198 17203326720020361887
4625314 4 17845931939370345352
4760202 170 18342454902575430128
4874694 18 17775567529363465598
57828716 8 12175617365936455629
58083652 198 15626223567760944778
58902169 19 18187929547360664134
59521270 166 18411979135843449077
6691757 9 17989216949761340947
6698420 124 17385729139809137920
9663363 56 16630522939179855570
9962374 69 12895063016593041320

> <PUBCHEM_SHAPE_MULTIPOLES>
652.2
38.52
1.9
1.39
30.47
0.49
-0.12
-17.11
12.4
-5.11
0.65
1.36
-0.06
-1.79

> <PUBCHEM_SHAPE_SELFOVERLAP>
1404.977

> <PUBCHEM_SHAPE_VOLUME>
361.1

> <PUBCHEM_COORDINATE_TYPE>
2
5
10

$$$$
46207586
  -OEChem-05102415023D

 56 60  0     0  0  0  0  0  0999 V2000
   -3.7189   -1.4125   -1.0373 S   0  0  0  0  0  0  0  0  0  0  0  0
   11.1579   -0.4224    1.0442 F   0  0  0  0  0  0  0  0  0  0  0  0
   -9.0157   -2.2342    1.0237 O   0  0  0  0  0  0  0  0  0  0  0  0
    4.9800    0.3317   -1.1641 O   0  0  0  0  0  0  0  0  0  0  0  0
   -8.2359    0.1877   -0.2955 N   0  0  0  0  0  0  0  0  0  0  0  0
   -3.2336    2.4816    1.1221 N   0  0  0  0  0  0  0  0  0  0  0  0
   -7.9541    0.1235   -1.6079 N   0  0  0  0  0  0  0  0  0  0  0  0
   -0.9180    2.0430    1.3025 N   0  0  0  0  0  0  0  0  0  0  0  0
    4.0980   -0.7154    0.7373 N   0  0  0  0  0  0  0  0  0  0  0  0
    6.3844   -0.4610    0.5294 N   0  0  0  0  0  0  0  0  0  0  0  0
   -2.3891    0.4368    0.1857 C   0  0  0  0  0  0  0  0  0  0  0  0
   -3.6842    0.1062   -0.2228 C   0  0  0  0  0  0  0  0  0  0  0  0
   -1.4510   -0.5828   -0.1884 C   0  0  0  0  0  0  0  0  0  0  0  0
   -4.7669    0.9556    0.0349 C   0  0  0  0  0  0  0  0  0  0  0  0
   -6.0994    0.6342   -0.3765 C   0  0  0  0  0  0  0  0  0  0  0  0
   -0.0286   -0.6173    0.0484 C   0  0  0  0  0  0  0  0  0  0  0  0
   -2.1989    1.6504    0.8654 C   0  0  0  0  0  0  0  0  0  0  0  0
   -2.0387   -1.6330   -0.8528 C   0  0  0  0  0  0  0  0  0  0  0  0
   -4.4661    2.1248    0.7111 C   0  0  0  0  0  0  0  0  0  0  0  0
   -7.1593    0.4905    0.4853 C   0  0  0  0  0  0  0  0  0  0  0  0
   -6.6476    0.3971   -1.6513 C   0  0  0  0  0  0  0  0  0  0  0  0
   -9.5833   -0.0560    0.1609 C   0  0  0  0  0  0  0  0  0  0  0  0
    0.8483   -0.0734   -0.8903 C   0  0  0  0  0  0  0  0  0  0  0  0
    0.4701   -1.1939    1.2165 C   0  0  0  0  0  0  0  0  0  0  0  0
    2.7223   -0.6833    0.5071 C   0  0  0  0  0  0  0  0  0  0  0  0
    2.2237   -0.1064   -0.6611 C   0  0  0  0  0  0  0  0  0  0  0  0
    1.8456   -1.2269    1.4459 C   0  0  0  0  0  0  0  0  0  0  0  0
   -9.9287   -1.5411    0.1822 C   0  0  0  0  0  0  0  0  0  0  0  0
    5.1430   -0.2219   -0.0815 C   0  0  0  0  0  0  0  0  0  0  0  0
    7.6717   -0.1270    0.0462 C   0  0  0  0  0  0  0  0  0  0  0  0
    8.8024   -0.4457    0.7982 C   0  0  0  0  0  0  0  0  0  0  0  0
    7.8100    0.5218   -1.1809 C   0  0  0  0  0  0  0  0  0  0  0  0
   10.0715   -0.1157    0.3231 C   0  0  0  0  0  0  0  0  0  0  0  0
    9.0792    0.8519   -1.6558 C   0  0  0  0  0  0  0  0  0  0  0  0
   10.2100    0.5333   -0.9038 C   0  0  0  0  0  0  0  0  0  0  0  0
   -1.5691   -2.5261   -1.2437 H   0  0  0  0  0  0  0  0  0  0  0  0
   -5.2393    2.8493    0.9538 H   0  0  0  0  0  0  0  0  0  0  0  0
   -7.2384    0.5726    1.5614 H   0  0  0  0  0  0  0  0  0  0  0  0
   -6.1553    0.4147   -2.6136 H   0  0  0  0  0  0  0  0  0  0  0  0
  -10.2663    0.4958   -0.4938 H   0  0  0  0  0  0  0  0  0  0  0  0
   -9.6652    0.3636    1.1703 H   0  0  0  0  0  0  0  0  0  0  0  0
    0.4744    0.3808   -1.8051 H   0  0  0  0  0  0  0  0  0  0  0  0
   -0.1999   -1.6209    1.9591 H   0  0  0  0  0  0  0  0  0  0  0  0
    2.8353    0.3352   -1.4348 H   0  0  0  0  0  0  0  0  0  0  0  0
    2.2203   -1.6789    2.3608 H   0  0  0  0  0  0  0  0  0  0  0  0
   -0.0904    1.4910    1.1564 H   0  0  0  0  0  0  0  0  0  0  0  0
   -0.8357    2.9274    1.7872 H   0  0  0  0  0  0  0  0  0  0  0  0
   -9.8668   -1.9737   -0.8218 H   0  0  0  0  0  0  0  0  0  0  0  0
  -10.9420   -1.6879    0.5683 H   0  0  0  0  0  0  0  0  0  0  0  0
    4.3848   -1.1516    1.6101 H   0  0  0  0  0  0  0  0  0  0  0  0
   -9.2727   -3.1719    1.0117 H   0  0  0  0  0  0  0  0  0  0  0  0
    6.3664   -0.9317    1.4306 H   0  0  0  0  0  0  0  0  0  0  0  0
    8.7089   -0.9512    1.7559 H   0  0  0  0  0  0  0  0  0  0  0  0
    6.9857    0.8020   -1.8208 H   0  0  0  0  0  0  0  0  0  0  0  0
    9.1886    1.3571   -2.6112 H   0  0  0  0  0  0  0  0  0  0  0  0
   11.1983    0.7901   -1.2735 H   0  0  0  0  0  0  0  0  0  0  0  0
  1 12  1  0  0  0  0
  1 18  1  0  0  0  0
  2 33  1  0  0  0  0
  3 28  1  0  0  0  0
  3 51  1  0  0  0  0
  4 29  2  0  0  0  0
  5  7  1  0  0  0  0
  5 20  1  0  0  0  0
  5 22  1  0  0  0  0
  6 17  2  0  0  0  0
  6 19  1  0  0  0  0
  7 21  2  0  0  0  0
  8 17  1  0  0  0  0
  8 46  1  0  0  0  0
  8 47  1  0  0  0  0
  9 25  1  0  0  0  0
  9 29  1  0  0  0  0
  9 50  1  0  0  0  0
 10 29  1  0  0  0  0
 10 30  1  0  0  0  0
 10 52  1  0  0  0  0
 11 12  2  0  0  0  0
 11 13  1  0  0  0  0
 11 17  1  0  0  0  0
 12 14  1  0  0  0  0
 13 16  1  0  0  0  0
 13 18  2  0  0  0  0
 14 15  1  0  0  0  0
 14 19  2  0  0  0  0
 15 20  2  0  0  0  0
 15 21  1  0  0  0  0
 16 23  2  0  0  0  0
 16 24  1  0  0  0  0
 18 36  1  0  0  0  0
 19 37  1  0  0  0  0
 20 38  1  0  0  0  0
 21 39  1  0  0  0  0
 22 28  1  0  0  0  0
 22 40  1  0  0  0  0
 22 41  1  0  0  0  0
 23 26  1  0  0  0  0
 23 42  1  0  0  0  0
 24 27  2  0  0  0  0
 24 43  1  0  0  0  0
 25 26  2  0  0  0  0
 25 27  1  0  0  0  0
 26 44  1  0  0  0  0
 27 45  1  0  0  0  0
 28 48  1  0  0  0  0
 28 49  1  0  0  0  0
 30 31  2  0  0  0  0
 30 32  1  0  0  0  0
 31 33  1  0  0  0  0
 31 53  1  0  0  0  0
 32 34  2  0  0  0  0
 32 54  1  0  0  0  0
 33 35  2  0  0  0  0
 34 35  1  0  0  0  0
 34 55  1  0  0  0  0
 35 56  1  0  0  0  0
M  END
> <PUBCHEM_COMPOUND_CID>
46207586

> <PUBCHEM_CONFORMER_RMSD>
1

> <PUBCHEM_CONFORMER_DIVERSEORDER>
1
19
55
59
52
72
16
36
67
45
22
14
47
61
34
50
41
38
58
32
15
75
63
69
6
24
5
48
12
57
68
11
43
74
20
8
54
73
65
17
64
33
28
66
40
18
46
31
26
27
35
56
49
60
9
21
25
44
30
23
10
42
70
39
13
29
7
37
62
2
4
53
71
3
51

> <PUBCHEM_MMFF94_PARTIAL_CHARGES>
51
1 -0.08
10 -0.55
12 0.04
13 -0.05
14 0.05
15 -0.05
16 0.05
17 0.41
18 -0.11
19 0.16
2 -0.19
20 -0.3
21 0.14
22 0.26
23 -0.15
24 -0.15
25 0.12
26 -0.15
27 -0.15
28 0.28
29 0.69
3 -0.68
30 0.12
31 -0.15
32 -0.15
33 0.19
34 -0.15
35 -0.15
36 0.15
37 0.15
38 0.15
39 0.15
4 -0.57
42 0.15
43 0.15
44 0.15
45 0.15
46 0.4
47 0.4
5 0.31
50 0.37
51 0.4
52 0.37
53 0.15
54 0.15
55 0.15
56 0.15
6 -0.62
7 -0.71
8 -0.9
9 -0.55

> <PUBCHEM_EFFECTIVE_ROTOR_COUNT>
8

> <PUBCHEM_PHARMACOPHORE_FEATURES>
13
1 10 donor
1 3 acceptor
1 3 donor
1 4 acceptor
1 7 acceptor
1 8 donor
1 9 donor
3 6 8 17 cation
5 1 11 12 13 18 rings
5 5 7 15 20 21 rings
6 16 23 24 25 26 27 rings
6 30 31 32 33 34 35 rings
6 6 11 12 14 17 19 rings

> <PUBCHEM_HEAVY_ATOM_COUNT>
35

> <PUBCHEM_ATOM_DEF_STEREO_COUNT>
0

> <PUBCHEM_ATOM_UDEF_STEREO_COUNT>
0

> <PUBCHEM_BOND_DEF_STEREO_COUNT>
0

> <PUBCHEM_BOND_UDEF_STEREO_COUNT>
0

> <PUBCHEM_ISOTOPIC_ATOM_COUNT>
0

> <PUBCHEM_COMPONENT_COUNT>
1

> <PUBCHEM_CACTVS_TAUTO_COUNT>
6

> <PUBCHEM_CONFORMER_ID>
02C1126200000001

> <PUBCHEM_MMFF94_ENERGY>
99.8063

> <PUBCHEM_FEATURE_SELFOVERLAP>
66.087

> <PUBCHEM_SHAPE_FINGERPRINT>
10 15 15719391733532999666
10076449 9 17489588956934894545
10162869 55 17676489462441487774
10674148 151 13901907813001968431
10883706 142 18187082846034775418
11315181 36 18333454243979821985
12013929 2 15502374505404689712
12013929 94 18259988206693516635
12082328 90 14620800371045766272
12089408 11 18336827507241719744
12664476 115 17989201547723936640
12758862 11 17417804084894378090
14118638 360 18059297557140879218
14251764 46 17530964683284176478
14344974 52 18341611564381747664
15065858 18 14345798262227048288
15183329 4 18202569463211926160
15392192 104 18113614578357255258
15419008 47 16773791481896345864
15461852 350 17775282776830446036
15510794 2 14779263082452987098
1577012 14 18268711619144569704
15840311 113 16443070513375361206
17686467 74 18413385441143515433
18335252 98 17918277527971168542
20105231 36 17775565355967634175
21267235 1 18131349713887393089
21362267 2 18338781412789292660
21362267 313 16806432622943598192
21591340 7 17821447967725682186
21792961 116 16845578595825906902
232437 2 17530682108843473210
249057 3 18131067160631025100
3092352 35 18333167263673228738
335352 9 18201714059838938093
335507 130 17704071798114130069
3525247 94 17967248694079097786
4017518 198 16343981417141288575
44389302 135 8358264714609148044
5028188 123 16773791503339402965
5381727 24 17676205779841336562
59521270 166 9511468818829766515
636775 8 18411701020090579591
6691757 9 18412554214526467291
67123 10 17748826319257896414
9663363 56 18131912655693880781

> <PUBCHEM_SHAPE_MULTIPOLES>
675.23
38.66
1.65
1.35
46.76
0.36
-0.19
-2.68
-3.93
-3.11
0.53
0.46
0.05
-1.28

> <PUBCHEM_SHAPE_SELFOVERLAP>
1486.62

> <PUBCHEM_SHAPE_VOLUME>
369

> <PUBCHEM_COORDINATE_TYPE>
2
5
10

$$$$
18451208
  -OEChem-05102415023D

 63 67  0     0  0  0  0  0  0999 V2000
   -3.4963   -0.7990   -0.5297 S   0  0  0  0  0  0  0  0  0  0  0  0
   -9.7001   -3.1675   -0.1227 O   0  0  0  0  0  0  0  0  0  0  0  0
    5.2157   -0.6407    1.1334 O   0  0  0  0  0  0  0  0  0  0  0  0
   -8.4103   -0.6966    0.4546 N   0  0  0  0  0  0  0  0  0  0  0  0
   -2.5511    3.4432    0.5526 N   0  0  0  0  0  0  0  0  0  0  0  0
   -0.2585    2.9703    0.2241 N   0  0  0  0  0  0  0  0  0  0  0  0
    4.4974   -0.0243   -1.0099 N   0  0  0  0  0  0  0  0  0  0  0  0
    6.7561   -0.2504   -0.5824 N   0  0  0  0  0  0  0  0  0  0  0  0
   -9.7386   -1.0154    0.9964 C   0  0  0  0  0  0  0  0  0  0  0  0
   -8.2108   -1.3864   -0.8276 C   0  0  0  0  0  0  0  0  0  0  0  0
   -9.8900   -2.5271    1.1395 C   0  0  0  0  0  0  0  0  0  0  0  0
   -8.3991   -2.8895   -0.6421 C   0  0  0  0  0  0  0  0  0  0  0  0
   -8.2466    0.7471    0.2981 C   0  0  0  0  0  0  0  0  0  0  0  0
   -1.9345    1.2184   -0.1119 C   0  0  0  0  0  0  0  0  0  0  0  0
   -1.1039    0.1105   -0.4884 C   0  0  0  0  0  0  0  0  0  0  0  0
   -3.2841    0.8551   -0.0941 C   0  0  0  0  0  0  0  0  0  0  0  0
    0.3317    0.0765   -0.6229 C   0  0  0  0  0  0  0  0  0  0  0  0
   -6.8275    1.1133    0.2800 C   0  0  0  0  0  0  0  0  0  0  0  0
   -4.2809    1.7773    0.2459 C   0  0  0  0  0  0  0  0  0  0  0  0
   -1.6008    2.5405    0.2218 C   0  0  0  0  0  0  0  0  0  0  0  0
   -1.8211   -1.0349   -0.7402 C   0  0  0  0  0  0  0  0  0  0  0  0
   -5.6653    1.4173    0.2643 C   0  0  0  0  0  0  0  0  0  0  0  0
    1.1260   -0.2594    0.4734 C   0  0  0  0  0  0  0  0  0  0  0  0
    0.9259    0.3785   -1.8482 C   0  0  0  0  0  0  0  0  0  0  0  0
   -3.8402    3.0516    0.5573 C   0  0  0  0  0  0  0  0  0  0  0  0
    3.1086    0.0084   -0.8810 C   0  0  0  0  0  0  0  0  0  0  0  0
    2.5145   -0.2935    0.3444 C   0  0  0  0  0  0  0  0  0  0  0  0
    2.3144    0.3445   -1.9773 C   0  0  0  0  0  0  0  0  0  0  0  0
    5.4690   -0.3379   -0.0283 C   0  0  0  0  0  0  0  0  0  0  0  0
    7.9970   -0.4840    0.0560 C   0  0  0  0  0  0  0  0  0  0  0  0
    9.1867   -0.3480   -0.6592 C   0  0  0  0  0  0  0  0  0  0  0  0
   10.4095   -0.5796   -0.0294 C   0  0  0  0  0  0  0  0  0  0  0  0
    8.0300   -0.8516    1.4012 C   0  0  0  0  0  0  0  0  0  0  0  0
   10.4427   -0.9473    1.3158 C   0  0  0  0  0  0  0  0  0  0  0  0
    9.2529   -1.0833    2.0311 C   0  0  0  0  0  0  0  0  0  0  0  0
   11.6817   -0.4361   -0.7945 C   0  0  0  0  0  0  0  0  0  0  0  0
   -9.8710   -0.5545    1.9820 H   0  0  0  0  0  0  0  0  0  0  0  0
  -10.5221   -0.6297    0.3311 H   0  0  0  0  0  0  0  0  0  0  0  0
   -8.9307   -1.0228   -1.5728 H   0  0  0  0  0  0  0  0  0  0  0  0
   -7.2020   -1.2075   -1.2163 H   0  0  0  0  0  0  0  0  0  0  0  0
  -10.8996   -2.7692    1.4866 H   0  0  0  0  0  0  0  0  0  0  0  0
   -9.1812   -2.9378    1.8689 H   0  0  0  0  0  0  0  0  0  0  0  0
   -7.6394   -3.3129    0.0263 H   0  0  0  0  0  0  0  0  0  0  0  0
   -8.3110   -3.3980   -1.6076 H   0  0  0  0  0  0  0  0  0  0  0  0
   -8.6941    1.2684    1.1549 H   0  0  0  0  0  0  0  0  0  0  0  0
   -8.7628    1.1245   -0.5933 H   0  0  0  0  0  0  0  0  0  0  0  0
   -1.4499   -2.0063   -1.0392 H   0  0  0  0  0  0  0  0  0  0  0  0
    0.6774   -0.4961    1.4356 H   0  0  0  0  0  0  0  0  0  0  0  0
    0.3211    0.6435   -2.7122 H   0  0  0  0  0  0  0  0  0  0  0  0
   -4.5425    3.8341    0.8325 H   0  0  0  0  0  0  0  0  0  0  0  0
    3.0584   -0.5617    1.2387 H   0  0  0  0  0  0  0  0  0  0  0  0
    2.7640    0.5828   -2.9380 H   0  0  0  0  0  0  0  0  0  0  0  0
   -0.0722    3.9331    0.4732 H   0  0  0  0  0  0  0  0  0  0  0  0
    0.5148    2.3704   -0.0065 H   0  0  0  0  0  0  0  0  0  0  0  0
    4.8561    0.2082   -1.9326 H   0  0  0  0  0  0  0  0  0  0  0  0
    6.8140    0.0130   -1.5629 H   0  0  0  0  0  0  0  0  0  0  0  0
    9.1620   -0.0636   -1.7088 H   0  0  0  0  0  0  0  0  0  0  0  0
    7.1553   -0.9780    2.0227 H   0  0  0  0  0  0  0  0  0  0  0  0
   11.3888   -1.1327    1.8172 H   0  0  0  0  0  0  0  0  0  0  0  0
    9.2801   -1.3704    3.0783 H   0  0  0  0  0  0  0  0  0  0  0  0
   12.5099   -0.1510   -0.1368 H   0  0  0  0  0  0  0  0  0  0  0  0
   11.5963    0.3446   -1.5580 H   0  0  0  0  0  0  0  0  0  0  0  0
   11.9338   -1.3816   -1.2848 H   0  0  0  0  0  0  0  0  0  0  0  0
  1 16  1  0  0  0  0
  1 21  1  0  0  0  0
  2 11  1  0  0  0  0
  2 12  1  0  0  0  0
  3 29  2  0  0  0  0
  4  9  1  0  0  0  0
  4 10  1  0  0  0  0
  4 13  1  0  0  0  0
  5 20  2  0  0  0  0
  5 25  1  0  0  0  0
  6 20  1  0  0  0  0
  6 53  1  0  0  0  0
  6 54  1  0  0  0  0
  7 26  1  0  0  0  0
  7 29  1  0  0  0  0
  7 55  1  0  0  0  0
  8 29  1  0  0  0  0
  8 30  1  0  0  0  0
  8 56  1  0  0  0  0
  9 11  1  0  0  0  0
  9 37  1  0  0  0  0
  9 38  1  0  0  0  0
 10 12  1  0  0  0  0
 10 39  1  0  0  0  0
 10 40  1  0  0  0  0
 11 41  1  0  0  0  0
 11 42  1  0  0  0  0
 12 43  1  0  0  0  0
 12 44  1  0  0  0  0
 13 18  1  0  0  0  0
 13 45  1  0  0  0  0
 13 46  1  0  0  0  0
 14 15  1  0  0  0  0
 14 16  2  0  0  0  0
 14 20  1  0  0  0  0
 15 17  1  0  0  0  0
 15 21  2  0  0  0  0
 16 19  1  0  0  0  0
 17 23  2  0  0  0  0
 17 24  1  0  0  0  0
 18 22  3  0  0  0  0
 19 22  1  0  0  0  0
 19 25  2  0  0  0  0
 21 47  1  0  0  0  0
 23 27  1  0  0  0  0
 23 48  1  0  0  0  0
 24 28  2  0  0  0  0
 24 49  1  0  0  0  0
 25 50  1  0  0  0  0
 26 27  2  0  0  0  0
 26 28  1  0  0  0  0
 27 51  1  0  0  0  0
 28 52  1  0  0  0  0
 30 31  1  0  0  0  0
 30 33  2  0  0  0  0
 31 32  2  0  0  0  0
 31 57  1  0  0  0  0
 32 34  1  0  0  0  0
 32 36  1  0  0  0  0
 33 35  1  0  0  0  0
 33 58  1  0  0  0  0
 34 35  2  0  0  0  0
 34 59  1  0  0  0  0
 35 60  1  0  0  0  0
 36 61  1  0  0  0  0
 36 62  1  0  0  0  0
 36 63  1  0  0  0  0
M  END
> <PUBCHEM_COMPOUND_CID>
18451208

> <PUBCHEM_CONFORMER_RMSD>
1

> <PUBCHEM_CONFORMER_DIVERSEORDER>
1
28
18
38
7
17
15
11
26
31
36
16
4
14
33
12
29
34
9
25
21
19
32
8
24
13
35
23
6
22
5
10
20
27
2
3
37
30

> <PUBCHEM_MMFF94_PARTIAL_CHARGES>
49
1 -0.08
10 0.27
11 0.28
12 0.28
13 0.47
15 -0.05
16 0.04
17 0.05
18 -0.2
19 0.07
2 -0.56
20 0.41
21 -0.11
22 -0.07
23 -0.15
24 -0.15
25 0.16
26 0.12
27 -0.15
28 -0.15
29 0.69
3 -0.57
30 0.12
31 -0.15
32 -0.14
33 -0.15
34 -0.15
35 -0.15
36 0.14
4 -0.81
47 0.15
48 0.15
49 0.15
5 -0.62
50 0.15
51 0.15
52 0.15
53 0.4
54 0.4
55 0.37
56 0.37
57 0.15
58 0.15
59 0.15
6 -0.9
60 0.15
7 -0.55
8 -0.55
9 0.27

> <PUBCHEM_EFFECTIVE_ROTOR_COUNT>
7.2

> <PUBCHEM_PHARMACOPHORE_FEATURES>
12
1 2 acceptor
1 3 acceptor
1 4 cation
1 6 donor
1 7 donor
1 8 donor
3 5 6 20 cation
5 1 14 15 16 21 rings
6 17 23 24 26 27 28 rings
6 2 4 9 10 11 12 rings
6 30 31 32 33 34 35 rings
6 5 14 16 19 20 25 rings

> <PUBCHEM_HEAVY_ATOM_COUNT>
36

> <PUBCHEM_ATOM_DEF_STEREO_COUNT>
0

> <PUBCHEM_ATOM_UDEF_STEREO_COUNT>
0

> <PUBCHEM_BOND_DEF_STEREO_COUNT>
0

> <PUBCHEM_BOND_UDEF_STEREO_COUNT>
0

> <PUBCHEM_ISOTOPIC_ATOM_COUNT>
0

> <PUBCHEM_COMPONENT_COUNT>
1

> <PUBCHEM_CACTVS_TAUTO_COUNT>
6

> <PUBCHEM_CONFORMER_ID>
01198B0800000001

> <PUBCHEM_MMFF94_ENERGY>
102.6843

> <PUBCHEM_FEATURE_SELFOVERLAP>
61.011

> <PUBCHEM_SHAPE_FINGERPRINT>
10 15 17917988335861146212
10162869 55 17458065967599641462
10533779 47 16845296000216465854
10580692 12 18341333311047188558
11181472 205 9871478611891516670
12089408 11 18113058216529672380
12498461 61 18408881841083725490
12539745 222 18040712555046417461
12741549 16 17203331134666116617
13740195 50 18131066047648939595
13947947 74 11458426825383691949
14202775 3 18341618071358279214
14279260 333 18409445895972733727
14918687 75 18113617902561253578
15247644 1 17095244713502801378
15274700 256 18412262857146006186
15392192 104 18409446961082223602
16087824 20 9439412315824651955
17686467 74 18272645745016709129
20105231 36 18273217470384764510
20501277 279 17132115732533943747
21057603 130 17749111102161096671
21102433 48 18040995141797717723
21360443 89 18411979191899758099
21792961 116 14634865327719130590
21792965 270 17417235654631272616
21895431 317 17822285748352496794
22899556 10 17479474344326345489
232437 2 18186802482927073642
2835820 33 18413389838999550370
3092352 35 18261112951617899722
3986486 107 13623523563703740343
3991529 128 10735881695151932559
4173938 188 18342173380005082034
4339292 15 18333167280636215603
4353968 344 17385718076896251029
437795 160 18412823590416222275
5381727 24 18409730656081993106
58083652 198 15647349528653616420
59521270 166 9079116652672923473
59521660 218 17895766213125922965
59682541 35 17704069586021135120
6691757 9 18335991899668781667
9663363 56 18273213076765018085
9962374 69 18040997362701211700

> <PUBCHEM_SHAPE_MULTIPOLES>
708.07
42.68
2.7
1.34
45.63
0.98
-0.03
-31.56
11.05
-9.37
0.56
1.96
-0.3
-1.48

> <PUBCHEM_SHAPE_SELFOVERLAP>
1531.738

> <PUBCHEM_SHAPE_VOLUME>
388.8

> <PUBCHEM_COORDINATE_TYPE>
2
5
10

$$$$
49830351
  -OEChem-05102415023D

 55 59  0     0  0  0  0  0  0999 V2000
    4.2730   -1.5242    1.1741 S   0  0  0  0  0  0  0  0  0  0  0  0
   -4.3641    0.4932    0.9289 O   0  0  0  0  0  0  0  0  0  0  0  0
    3.8931    1.8126   -1.7897 N   0  0  0  0  0  0  0  0  0  0  0  0
    8.6682    0.5203    1.0055 N   0  0  0  0  0  0  0  0  0  0  0  0
    1.5630    1.4221   -1.8649 N   0  0  0  0  0  0  0  0  0  0  0  0
    8.7075   -0.7495    0.5669 N   0  0  0  0  0  0  0  0  0  0  0  0
   -3.5334   -0.9756   -0.6965 N   0  0  0  0  0  0  0  0  0  0  0  0
   -5.8085   -0.6060   -0.5457 N   0  0  0  0  0  0  0  0  0  0  0  0
    2.9919    0.0534   -0.4240 C   0  0  0  0  0  0  0  0  0  0  0  0
    4.2796   -0.2220    0.0450 C   0  0  0  0  0  0  0  0  0  0  0  0
    2.0252   -0.8270    0.1672 C   0  0  0  0  0  0  0  0  0  0  0  0
    5.3864    0.5134   -0.3955 C   0  0  0  0  0  0  0  0  0  0  0  0
    0.6003   -0.8656   -0.0536 C   0  0  0  0  0  0  0  0  0  0  0  0
    2.8347    1.0931   -1.3542 C   0  0  0  0  0  0  0  0  0  0  0  0
    6.7117    0.2465    0.0741 C   0  0  0  0  0  0  0  0  0  0  0  0
    2.5850   -1.7241    1.0457 C   0  0  0  0  0  0  0  0  0  0  0  0
    5.1172    1.5143   -1.3124 C   0  0  0  0  0  0  0  0  0  0  0  0
   -0.2501   -0.0995    0.7437 C   0  0  0  0  0  0  0  0  0  0  0  0
    0.0728   -1.6684   -1.0650 C   0  0  0  0  0  0  0  0  0  0  0  0
    7.4947    1.1608    0.7354 C   0  0  0  0  0  0  0  0  0  0  0  0
   -2.1553   -0.9394   -0.4815 C   0  0  0  0  0  0  0  0  0  0  0  0
    7.5095   -0.9110   -0.0012 C   0  0  0  0  0  0  0  0  0  0  0  0
   -1.6279   -0.1364    0.5299 C   0  0  0  0  0  0  0  0  0  0  0  0
   -1.3050   -1.7054   -1.2789 C   0  0  0  0  0  0  0  0  0  0  0  0
    9.8098    1.0773    1.6909 C   0  0  0  0  0  0  0  0  0  0  0  0
   -4.5546   -0.2796   -0.0047 C   0  0  0  0  0  0  0  0  0  0  0  0
   -7.0799   -0.1312   -0.1457 C   0  0  0  0  0  0  0  0  0  0  0  0
   -9.5862    0.8052    0.6440 C   0  0  0  0  0  0  0  0  0  0  0  0
   -8.2280   -0.5702   -0.8053 C   0  0  0  0  0  0  0  0  0  0  0  0
   -7.1850    0.7761    0.9086 C   0  0  0  0  0  0  0  0  0  0  0  0
   -9.4810   -0.1020   -0.4104 C   0  0  0  0  0  0  0  0  0  0  0  0
   -8.4382    1.2443    1.3034 C   0  0  0  0  0  0  0  0  0  0  0  0
  -10.9266    1.3050    1.0663 C   0  0  0  0  0  0  0  0  0  0  0  0
    2.0906   -2.4930    1.6246 H   0  0  0  0  0  0  0  0  0  0  0  0
    5.9118    2.1370   -1.7154 H   0  0  0  0  0  0  0  0  0  0  0  0
    0.1464    0.5324    1.5352 H   0  0  0  0  0  0  0  0  0  0  0  0
    0.7219   -2.2706   -1.6963 H   0  0  0  0  0  0  0  0  0  0  0  0
    7.3221    2.1873    1.0313 H   0  0  0  0  0  0  0  0  0  0  0  0
    7.2749   -1.8667   -0.4488 H   0  0  0  0  0  0  0  0  0  0  0  0
   -2.2179    0.4849    1.1882 H   0  0  0  0  0  0  0  0  0  0  0  0
   -1.7023   -2.3351   -2.0710 H   0  0  0  0  0  0  0  0  0  0  0  0
    0.7195    0.9436   -1.5993 H   0  0  0  0  0  0  0  0  0  0  0  0
    1.5048    2.1802   -2.5325 H   0  0  0  0  0  0  0  0  0  0  0  0
   -3.8419   -1.5836   -1.4512 H   0  0  0  0  0  0  0  0  0  0  0  0
    9.5986    2.1121    1.9712 H   0  0  0  0  0  0  0  0  0  0  0  0
   10.6679    1.0411    1.0151 H   0  0  0  0  0  0  0  0  0  0  0  0
    9.9990    0.4791    2.5858 H   0  0  0  0  0  0  0  0  0  0  0  0
   -5.8139   -1.2641   -1.3209 H   0  0  0  0  0  0  0  0  0  0  0  0
   -8.1599   -1.2773   -1.6281 H   0  0  0  0  0  0  0  0  0  0  0  0
   -6.3459    1.1629    1.4687 H   0  0  0  0  0  0  0  0  0  0  0  0
  -10.3684   -0.4528   -0.9308 H   0  0  0  0  0  0  0  0  0  0  0  0
   -8.5088    1.9496    2.1274 H   0  0  0  0  0  0  0  0  0  0  0  0
  -11.6193    1.3426    0.2186 H   0  0  0  0  0  0  0  0  0  0  0  0
  -10.8602    2.3208    1.4705 H   0  0  0  0  0  0  0  0  0  0  0  0
  -11.3473    0.6486    1.8344 H   0  0  0  0  0  0  0  0  0  0  0  0
  1 10  1  0  0  0  0
  1 16  1  0  0  0  0
  2 26  2  0  0  0  0
  3 14  2  0  0  0  0
  3 17  1  0  0  0  0
  4  6  1  0  0  0  0
  4 20  1  0  0  0  0
  4 25  1  0  0  0  0
  5 14  1  0  0  0  0
  5 42  1  0  0  0  0
  5 43  1  0  0  0  0
  6 22  2  0  0  0  0
  7 21  1  0  0  0  0
  7 26  1  0  0  0  0
  7 44  1  0  0  0  0
  8 26  1  0  0  0  0
  8 27  1  0  0  0  0
  8 48  1  0  0  0  0
  9 10  2  0  0  0  0
  9 11  1  0  0  0  0
  9 14  1  0  0  0  0
 10 12  1  0  0  0  0
 11 13  1  0  0  0  0
 11 16  2  0  0  0  0
 12 15  1  0  0  0  0
 12 17  2  0  0  0  0
 13 18  2  0  0  0  0
 13 19  1  0  0  0  0
 15 20  2  0  0  0  0
 15 22  1  0  0  0  0
 16 34  1  0  0  0  0
 17 35  1  0  0  0  0
 18 23  1  0  0  0  0
 18 36  1  0  0  0  0
 19 24  2  0  0  0  0
 19 37  1  0  0  0  0
 20 38  1  0  0  0  0
 21 23  2  0  0  0  0
 21 24  1  0  0  0  0
 22 39  1  0  0  0  0
 23 40  1  0  0  0  0
 24 41  1  0  0  0  0
 25 45  1  0  0  0  0
 25 46  1  0  0  0  0
 25 47  1  0  0  0  0
 27 29  2  0  0  0  0
 27 30  1  0  0  0  0
 28 31  2  0  0  0  0
 28 32  1  0  0  0  0
 28 33  1  0  0  0  0
 29 31  1  0  0  0  0
 29 49  1  0  0  0  0
 30 32  2  0  0  0  0
 30 50  1  0  0  0  0
 31 51  1  0  0  0  0
 32 52  1  0  0  0  0
 33 53  1  0  0  0  0
 33 54  1  0  0  0  0
 33 55  1  0  0  0  0
M  END
> <PUBCHEM_COMPOUND_CID>
49830351

> <PUBCHEM_CONFORMER_RMSD>
0.8

> <PUBCHEM_CONFORMER_DIVERSEORDER>
1
9
19
16
22
17
6
4
18
21
14
5
13
20
8
10
15
11
3
12
7
2

> <PUBCHEM_MMFF94_PARTIAL_CHARGES>
48
1 -0.08
10 0.04
11 -0.05
12 0.05
13 0.05
14 0.41
15 -0.05
16 -0.11
17 0.16
18 -0.15
19 -0.15
2 -0.57
20 -0.3
21 0.12
22 0.14
23 -0.15
24 -0.15
25 0.26
26 0.69
27 0.12
28 -0.14
29 -0.15
3 -0.62
30 -0.15
31 -0.15
32 -0.15
33 0.14
34 0.15
35 0.15
36 0.15
37 0.15
38 0.15
39 0.15
4 0.31
40 0.15
41 0.15
42 0.4
43 0.4
44 0.37
48 0.37
49 0.15
5 -0.9
50 0.15
51 0.15
52 0.15
6 -0.71
7 -0.55
8 -0.55

> <PUBCHEM_EFFECTIVE_ROTOR_COUNT>
6

> <PUBCHEM_PHARMACOPHORE_FEATURES>
11
1 2 acceptor
1 5 donor
1 6 acceptor
1 7 donor
1 8 donor
3 3 5 14 cation
5 1 9 10 11 16 rings
5 4 6 15 20 22 rings
6 13 18 19 21 23 24 rings
6 27 28 29 30 31 32 rings
6 3 9 10 12 14 17 rings

> <PUBCHEM_HEAVY_ATOM_COUNT>
33

> <PUBCHEM_ATOM_DEF_STEREO_COUNT>
0

> <PUBCHEM_ATOM_UDEF_STEREO_COUNT>
0

> <PUBCHEM_BOND_DEF_STEREO_COUNT>
0

> <PUBCHEM_BOND_UDEF_STEREO_COUNT>
0

> <PUBCHEM_ISOTOPIC_ATOM_COUNT>
0

> <PUBCHEM_COMPONENT_COUNT>
1

> <PUBCHEM_CACTVS_TAUTO_COUNT>
6

> <PUBCHEM_CONFORMER_ID>
02F859CF00000001

> <PUBCHEM_MMFF94_ENERGY>
102.1496

> <PUBCHEM_FEATURE_SELFOVERLAP>
55.936

> <PUBCHEM_SHAPE_FINGERPRINT>
10 15 18411140217567857635
10162869 55 18041273357600638303
10533779 47 17095526154066278747
11135609 127 16845282904597254392
11443803 9 18060137639469145919
11456790 92 17530964687416243597
11607047 141 18060133186595804378
12089408 11 18202561778756142007
12236239 1 18340203090060653662
12498461 61 15213303054276070489
12522641 33 16200154283124990318
12539745 222 14490464267290167911
12664476 115 17968090928507122365
12741549 16 16008742516333788412
14150022 121 16298378025390681367
14251764 46 17775283867625628994
14294032 229 18059853923136458101
14344974 52 16845565453262514705
150020 25 14692571031303588855
15131766 46 16011590388809437244
15247644 1 11025803094359767169
15419008 145 17822004277053880101
15510794 2 14979953684480902375
155225 1 17989488511784577809
15840311 113 18343021104187410836
16728433 281 14835021460360231251
1818759 1 11025798695795621625
20105231 36 12612746913603447680
20505436 4 18131061632444750071
20812841 46 18186799176197635240
21057603 238 15793677909203861386
21057603 43 18200590295233455474
21362267 20 14634876370613507985
21362267 313 17988081071775271954
21591340 7 18412823612155114879
22956985 138 11532131462318638841
24771293 8 16917078741621076313
24893992 56 18337391642896187339
249057 3 17822013129028403675
3092352 35 18410292519820424487
3178227 256 17313101969606078690
3711267 37 17988656190178359681
395649 100 18130218359710214791
45377200 153 13326554278489499229
5028188 123 16128649761755230261
54039377 194 10953459626933911883
57303763 39 14490774389144659794
6081469 158 15769781238842421160
67123 10 17775283868021196571
9962374 69 11963399569680346483

> <PUBCHEM_SHAPE_MULTIPOLES>
647.22
36.38
1.61
1.43
47.05
0.11
-0.29
-15.72
12.03
-0.49
-0.09
-1.42
-0.38
-2.08

> <PUBCHEM_SHAPE_SELFOVERLAP>
1429.224

> <PUBCHEM_SHAPE_VOLUME>
350.6

> <PUBCHEM_COORDINATE_TYPE>
2
5
10

$$$$
49830356
  -OEChem-05102415023D

 49 52  0     0  0  0  0  0  0999 V2000
  -10.2987    0.3587   -1.2113 Cl  0  0  0  0  0  0  0  0  0  0  0  0
    4.8108   -2.0942    0.3270 S   0  0  0  0  0  0  0  0  0  0  0  0
    7.5074   -1.0883    1.1244 O   0  0  0  0  0  0  0  0  0  0  0  0
   -3.7856   -0.0971    1.2359 O   0  0  0  0  0  0  0  0  0  0  0  0
    4.5382    2.3473   -0.1854 N   0  0  0  0  0  0  0  0  0  0  0  0
    2.2046    2.1249   -0.4894 N   0  0  0  0  0  0  0  0  0  0  0  0
   -2.9504   -0.3878   -0.9338 N   0  0  0  0  0  0  0  0  0  0  0  0
    8.3866    0.6741   -0.0996 N   0  0  0  0  0  0  0  0  0  0  0  0
   -5.2215   -0.1175   -0.6099 N   0  0  0  0  0  0  0  0  0  0  0  0
    3.5847    0.1445   -0.0841 C   0  0  0  0  0  0  0  0  0  0  0  0
    2.5936   -0.8930   -0.1127 C   0  0  0  0  0  0  0  0  0  0  0  0
    4.8586   -0.3802    0.1507 C   0  0  0  0  0  0  0  0  0  0  0  0
    1.1724   -0.7642   -0.3229 C   0  0  0  0  0  0  0  0  0  0  0  0
    5.9848    0.4487    0.2203 C   0  0  0  0  0  0  0  0  0  0  0  0
    3.1227   -2.1446    0.0952 C   0  0  0  0  0  0  0  0  0  0  0  0
    3.4610    1.5331   -0.2496 C   0  0  0  0  0  0  0  0  0  0  0  0
    0.3207   -0.5738    0.7652 C   0  0  0  0  0  0  0  0  0  0  0  0
    0.6498   -0.8292   -1.6146 C   0  0  0  0  0  0  0  0  0  0  0  0
    5.7483    1.8005    0.0428 C   0  0  0  0  0  0  0  0  0  0  0  0
   -1.5761   -0.5140   -0.7298 C   0  0  0  0  0  0  0  0  0  0  0  0
   -1.0535   -0.4487    0.5619 C   0  0  0  0  0  0  0  0  0  0  0  0
   -0.7244   -0.7042   -1.8180 C   0  0  0  0  0  0  0  0  0  0  0  0
    7.3261   -0.0494    0.4619 C   0  0  0  0  0  0  0  0  0  0  0  0
   -3.9721   -0.1902    0.0269 C   0  0  0  0  0  0  0  0  0  0  0  0
   -6.4918    0.0721   -0.0163 C   0  0  0  0  0  0  0  0  0  0  0  0
    9.7747    0.2934    0.0315 C   0  0  0  0  0  0  0  0  0  0  0  0
   -7.6353    0.1174   -0.8140 C   0  0  0  0  0  0  0  0  0  0  0  0
   -6.6003    0.2132    1.3672 C   0  0  0  0  0  0  0  0  0  0  0  0
   -8.8872    0.3037   -0.2279 C   0  0  0  0  0  0  0  0  0  0  0  0
   -7.8522    0.3996    1.9531 C   0  0  0  0  0  0  0  0  0  0  0  0
   -8.9958    0.4449    1.1556 C   0  0  0  0  0  0  0  0  0  0  0  0
    2.6057   -3.0947    0.1245 H   0  0  0  0  0  0  0  0  0  0  0  0
    0.7135   -0.5195    1.7780 H   0  0  0  0  0  0  0  0  0  0  0  0
    1.3001   -0.9757   -2.4738 H   0  0  0  0  0  0  0  0  0  0  0  0
    6.5430    2.5382    0.1021 H   0  0  0  0  0  0  0  0  0  0  0  0
   -1.6448   -0.3034    1.4545 H   0  0  0  0  0  0  0  0  0  0  0  0
   -1.1178   -0.7563   -2.8301 H   0  0  0  0  0  0  0  0  0  0  0  0
    1.3492    1.6003   -0.5541 H   0  0  0  0  0  0  0  0  0  0  0  0
    2.1706    3.1300   -0.6015 H   0  0  0  0  0  0  0  0  0  0  0  0
   -3.2555   -0.4456   -1.9022 H   0  0  0  0  0  0  0  0  0  0  0  0
    8.1915    1.4713   -0.6964 H   0  0  0  0  0  0  0  0  0  0  0  0
   -5.2238   -0.2120   -1.6223 H   0  0  0  0  0  0  0  0  0  0  0  0
    9.9365   -0.2515    0.9647 H   0  0  0  0  0  0  0  0  0  0  0  0
   10.0368   -0.3444   -0.8162 H   0  0  0  0  0  0  0  0  0  0  0  0
   10.3856    1.1988    0.0146 H   0  0  0  0  0  0  0  0  0  0  0  0
   -7.5495    0.0070   -1.8929 H   0  0  0  0  0  0  0  0  0  0  0  0
   -5.7650    0.1898    2.0520 H   0  0  0  0  0  0  0  0  0  0  0  0
   -7.9381    0.5096    3.0303 H   0  0  0  0  0  0  0  0  0  0  0  0
   -9.9648    0.5907    1.6261 H   0  0  0  0  0  0  0  0  0  0  0  0
  1 29  1  0  0  0  0
  2 12  1  0  0  0  0
  2 15  1  0  0  0  0
  3 23  2  0  0  0  0
  4 24  2  0  0  0  0
  5 16  2  0  0  0  0
  5 19  1  0  0  0  0
  6 16  1  0  0  0  0
  6 38  1  0  0  0  0
  6 39  1  0  0  0  0
  7 20  1  0  0  0  0
  7 24  1  0  0  0  0
  7 40  1  0  0  0  0
  8 23  1  0  0  0  0
  8 26  1  0  0  0  0
  8 41  1  0  0  0  0
  9 24  1  0  0  0  0
  9 25  1  0  0  0  0
  9 42  1  0  0  0  0
 10 11  1  0  0  0  0
 10 12  2  0  0  0  0
 10 16  1  0  0  0  0
 11 13  1  0  0  0  0
 11 15  2  0  0  0  0
 12 14  1  0  0  0  0
 13 17  2  0  0  0  0
 13 18  1  0  0  0  0
 14 19  2  0  0  0  0
 14 23  1  0  0  0  0
 15 32  1  0  0  0  0
 17 21  1  0  0  0  0
 17 33  1  0  0  0  0
 18 22  2  0  0  0  0
 18 34  1  0  0  0  0
 19 35  1  0  0  0  0
 20 21  2  0  0  0  0
 20 22  1  0  0  0  0
 21 36  1  0  0  0  0
 22 37  1  0  0  0  0
 25 27  2  0  0  0  0
 25 28  1  0  0  0  0
 26 43  1  0  0  0  0
 26 44  1  0  0  0  0
 26 45  1  0  0  0  0
 27 29  1  0  0  0  0
 27 46  1  0  0  0  0
 28 30  2  0  0  0  0
 28 47  1  0  0  0  0
 29 31  2  0  0  0  0
 30 31  1  0  0  0  0
 30 48  1  0  0  0  0
 31 49  1  0  0  0  0
M  END
> <PUBCHEM_COMPOUND_CID>
49830356

> <PUBCHEM_CONFORMER_RMSD>
1

> <PUBCHEM_CONFORMER_DIVERSEORDER>
1
23
13
15
24
18
5
22
26
6
12
16
10
4
17
21
9
25
14
7
11
19
3
2
20
8

> <PUBCHEM_MMFF94_PARTIAL_CHARGES>
45
1 -0.18
11 -0.05
12 0.04
13 0.05
14 0.09
15 -0.11
16 0.41
17 -0.15
18 -0.15
19 0.16
2 -0.08
20 0.12
21 -0.15
22 -0.15
23 0.54
24 0.69
25 0.12
26 0.3
27 -0.15
28 -0.15
29 0.18
3 -0.57
30 -0.15
31 -0.15
32 0.15
33 0.15
34 0.15
35 0.15
36 0.15
37 0.15
38 0.4
39 0.4
4 -0.57
40 0.37
41 0.37
42 0.37
46 0.15
47 0.15
48 0.15
49 0.15
5 -0.62
6 -0.9
7 -0.55
8 -0.73
9 -0.55

> <PUBCHEM_EFFECTIVE_ROTOR_COUNT>
7

> <PUBCHEM_PHARMACOPHORE_FEATURES>
11
1 3 acceptor
1 4 acceptor
1 6 donor
1 7 donor
1 8 donor
1 9 donor
3 5 6 16 cation
5 2 10 11 12 15 rings
6 13 17 18 20 21 22 rings
6 25 27 28 29 30 31 rings
6 5 10 12 14 16 19 rings

> <PUBCHEM_HEAVY_ATOM_COUNT>
31

> <PUBCHEM_ATOM_DEF_STEREO_COUNT>
0

> <PUBCHEM_ATOM_UDEF_STEREO_COUNT>
0

> <PUBCHEM_BOND_DEF_STEREO_COUNT>
0

> <PUBCHEM_BOND_UDEF_STEREO_COUNT>
0

> <PUBCHEM_ISOTOPIC_ATOM_COUNT>
0

> <PUBCHEM_COMPONENT_COUNT>
1

> <PUBCHEM_CACTVS_TAUTO_COUNT>
21

> <PUBCHEM_CONFORMER_ID>
02F859D400000001

> <PUBCHEM_MMFF94_ENERGY>
99.2069

> <PUBCHEM_FEATURE_SELFOVERLAP>
55.936

> <PUBCHEM_SHAPE_FINGERPRINT>
10 15 17894911832513585715
10162869 55 18341887515983069175
10165383 225 17676487259793340122
10299344 5 17918274247523346499
10533779 47 17895481332118249531
106641 1 15574715816038751054
11135609 127 15769484435633977056
11315181 36 18202846557665016051
11456790 92 18187638081931502192
12089408 11 17346598547959057051
12236239 1 17917706938199355454
12664476 115 18333444339854322421
12741549 16 17385719197656537716
13553643 46 18336831893396242409
14150022 121 17603580786538474797
14251764 18 17847061074104707139
14251764 46 16917067763241282342
14294032 229 16988563460136569769
14344974 52 15482379941270104835
15183329 4 17060342929430111553
15301273 46 16805039614472136903
15419008 47 17385719193319261997
15439362 3 17628341990454911400
15461852 350 15841546397479350391
15510794 2 17676207975313267411
1577012 14 17704348858038475399
15840311 113 17847057814351520160
16120349 18 18411976975274419397
16728433 110 8502367824345021070
16728433 281 12678365720663760867
1818759 1 12468639409218764017
19315958 150 18114186319496898898
19841028 212 12901811797363627944
20157964 124 18411984650033070990
21150785 3 12751239207725260631
21591340 7 17918270969962101175
21792934 111 16443062807365184287
22224240 67 18113337514301225691
23576562 1 16557892585288451881
24771293 8 17560808702350088833
24893992 56 17632289116464145251
249057 3 18411701006187442823
3092352 35 17918272056447013159
3178227 256 18186800293073728738
335352 9 16702300169856815464
3383291 50 16154001218372863689
397830 11 17896051000043781147
4073 2 18041001807607741643
4325135 7 18273214197070701381
5381727 24 16845854585438304174
5758199 1 17418094300403718919
59682541 35 17022623095600185252
9663363 56 15574711400749288279

> <PUBCHEM_SHAPE_MULTIPOLES>
607.04
33.27
1.58
1.29
38.53
0.21
-0.04
7.89
-4.45
-3.45
0.08
2.41
-0.1
-1.07

> <PUBCHEM_SHAPE_SELFOVERLAP>
1315.528

> <PUBCHEM_SHAPE_VOLUME>
334.4

> <PUBCHEM_COORDINATE_TYPE>
2
5
10

$$$$
18451135
  -OEChem-05102415023D

 64 67  0     0  0  0  0  0  0999 V2000
    3.6730   -1.6990   -0.1657 S   0  0  0  0  0  0  0  0  0  0  0  0
   -4.9666   -0.0105   -1.2592 O   0  0  0  0  0  0  0  0  0  0  0  0
    9.3408   -0.3362    0.7906 N   0  0  0  0  0  0  0  0  0  0  0  0
    3.1793    2.6697    0.6899 N   0  0  0  0  0  0  0  0  0  0  0  0
    0.8483    2.3248    0.8773 N   0  0  0  0  0  0  0  0  0  0  0  0
   -4.1993   -0.4372    0.9130 N   0  0  0  0  0  0  0  0  0  0  0  0
   -6.4671   -0.2414    0.5197 N   0  0  0  0  0  0  0  0  0  0  0  0
    8.5725   -0.4215   -0.4557 C   0  0  0  0  0  0  0  0  0  0  0  0
    8.5493   -1.8995   -0.9340 C   0  0  0  0  0  0  0  0  0  0  0  0
    9.2389    0.4366   -1.5663 C   0  0  0  0  0  0  0  0  0  0  0  0
    7.9196   -2.8941    0.0407 C   0  0  0  0  0  0  0  0  0  0  0  0
    9.3447    1.9328   -1.2767 C   0  0  0  0  0  0  0  0  0  0  0  0
    7.1886    0.0461   -0.2196 C   0  0  0  0  0  0  0  0  0  0  0  0
    2.3315    0.4443    0.3728 C   0  0  0  0  0  0  0  0  0  0  0  0
    1.3883   -0.6328    0.2768 C   0  0  0  0  0  0  0  0  0  0  0  0
    3.6361   -0.0049    0.1494 C   0  0  0  0  0  0  0  0  0  0  0  0
    4.7251    0.8738    0.1931 C   0  0  0  0  0  0  0  0  0  0  0  0
   -0.0438   -0.5825    0.4410 C   0  0  0  0  0  0  0  0  0  0  0  0
    6.0640    0.4246   -0.0307 C   0  0  0  0  0  0  0  0  0  0  0  0
    2.1386    1.8081    0.6443 C   0  0  0  0  0  0  0  0  0  0  0  0
    1.9814   -1.8396   -0.0089 C   0  0  0  0  0  0  0  0  0  0  0  0
    4.4207    2.1953    0.4687 C   0  0  0  0  0  0  0  0  0  0  0  0
   -0.8629   -0.3419   -0.6621 C   0  0  0  0  0  0  0  0  0  0  0  0
   -0.6098   -0.7751    1.7013 C   0  0  0  0  0  0  0  0  0  0  0  0
   -2.8140   -0.4864    0.7554 C   0  0  0  0  0  0  0  0  0  0  0  0
   -2.2480   -0.2939   -0.5049 C   0  0  0  0  0  0  0  0  0  0  0  0
   -1.9948   -0.7270    1.8585 C   0  0  0  0  0  0  0  0  0  0  0  0
   -5.1931   -0.2082   -0.0697 C   0  0  0  0  0  0  0  0  0  0  0  0
   -7.7222   -0.0605   -0.1080 C   0  0  0  0  0  0  0  0  0  0  0  0
   -8.8950   -0.1280    0.6439 C   0  0  0  0  0  0  0  0  0  0  0  0
  -10.1319    0.0493    0.0242 C   0  0  0  0  0  0  0  0  0  0  0  0
   -7.7862    0.1843   -1.4797 C   0  0  0  0  0  0  0  0  0  0  0  0
  -10.1961    0.2940   -1.3476 C   0  0  0  0  0  0  0  0  0  0  0  0
   -9.0233    0.3616   -2.0995 C   0  0  0  0  0  0  0  0  0  0  0  0
  -11.3863   -0.0249    0.8276 C   0  0  0  0  0  0  0  0  0  0  0  0
    9.5725   -2.2346   -1.1508 H   0  0  0  0  0  0  0  0  0  0  0  0
    7.9965   -1.9665   -1.8812 H   0  0  0  0  0  0  0  0  0  0  0  0
   10.2501    0.0568   -1.7650 H   0  0  0  0  0  0  0  0  0  0  0  0
    8.6773    0.3180   -2.5031 H   0  0  0  0  0  0  0  0  0  0  0  0
    8.4920   -2.9684    0.9699 H   0  0  0  0  0  0  0  0  0  0  0  0
    6.8878   -2.6307    0.2869 H   0  0  0  0  0  0  0  0  0  0  0  0
    7.9050   -3.8916   -0.4117 H   0  0  0  0  0  0  0  0  0  0  0  0
    9.8037    2.4422   -2.1307 H   0  0  0  0  0  0  0  0  0  0  0  0
    8.3625    2.3854   -1.1123 H   0  0  0  0  0  0  0  0  0  0  0  0
    9.9710    2.1312   -0.4021 H   0  0  0  0  0  0  0  0  0  0  0  0
    9.3729    0.6263    1.1232 H   0  0  0  0  0  0  0  0  0  0  0  0
    8.8885   -0.8740    1.5284 H   0  0  0  0  0  0  0  0  0  0  0  0
    1.5097   -2.8052   -0.1353 H   0  0  0  0  0  0  0  0  0  0  0  0
    5.2021    2.9489    0.5232 H   0  0  0  0  0  0  0  0  0  0  0  0
   -0.4364   -0.1885   -1.6508 H   0  0  0  0  0  0  0  0  0  0  0  0
    0.0148   -0.9626    2.5716 H   0  0  0  0  0  0  0  0  0  0  0  0
   -2.8122   -0.1023   -1.4064 H   0  0  0  0  0  0  0  0  0  0  0  0
   -2.4223   -0.8782    2.8465 H   0  0  0  0  0  0  0  0  0  0  0  0
    0.0157    1.7614    0.8624 H   0  0  0  0  0  0  0  0  0  0  0  0
    0.7643    3.3152    1.0674 H   0  0  0  0  0  0  0  0  0  0  0  0
   -4.5367   -0.5862    1.8608 H   0  0  0  0  0  0  0  0  0  0  0  0
   -6.5023   -0.4160    1.5208 H   0  0  0  0  0  0  0  0  0  0  0  0
   -8.8464   -0.3211    1.7133 H   0  0  0  0  0  0  0  0  0  0  0  0
   -6.9262    0.2510   -2.1303 H   0  0  0  0  0  0  0  0  0  0  0  0
  -11.1538    0.4316   -1.8426 H   0  0  0  0  0  0  0  0  0  0  0  0
   -9.0746    0.5516   -3.1678 H   0  0  0  0  0  0  0  0  0  0  0  0
  -12.1777    0.5896    0.3850 H   0  0  0  0  0  0  0  0  0  0  0  0
  -11.2246    0.3461    1.8454 H   0  0  0  0  0  0  0  0  0  0  0  0
  -11.7367   -1.0604    0.8822 H   0  0  0  0  0  0  0  0  0  0  0  0
  1 16  1  0  0  0  0
  1 21  1  0  0  0  0
  2 28  2  0  0  0  0
  3  8  1  0  0  0  0
  3 46  1  0  0  0  0
  3 47  1  0  0  0  0
  4 20  2  0  0  0  0
  4 22  1  0  0  0  0
  5 20  1  0  0  0  0
  5 54  1  0  0  0  0
  5 55  1  0  0  0  0
  6 25  1  0  0  0  0
  6 28  1  0  0  0  0
  6 56  1  0  0  0  0
  7 28  1  0  0  0  0
  7 29  1  0  0  0  0
  7 57  1  0  0  0  0
  8  9  1  0  0  0  0
  8 10  1  0  0  0  0
  8 13  1  0  0  0  0
  9 11  1  0  0  0  0
  9 36  1  0  0  0  0
  9 37  1  0  0  0  0
 10 12  1  0  0  0  0
 10 38  1  0  0  0  0
 10 39  1  0  0  0  0
 11 40  1  0  0  0  0
 11 41  1  0  0  0  0
 11 42  1  0  0  0  0
 12 43  1  0  0  0  0
 12 44  1  0  0  0  0
 12 45  1  0  0  0  0
 13 19  3  0  0  0  0
 14 15  1  0  0  0  0
 14 16  2  0  0  0  0
 14 20  1  0  0  0  0
 15 18  1  0  0  0  0
 15 21  2  0  0  0  0
 16 17  1  0  0  0  0
 17 19  1  0  0  0  0
 17 22  2  0  0  0  0
 18 23  2  0  0  0  0
 18 24  1  0  0  0  0
 21 48  1  0  0  0  0
 22 49  1  0  0  0  0
 23 26  1  0  0  0  0
 23 50  1  0  0  0  0
 24 27  2  0  0  0  0
 24 51  1  0  0  0  0
 25 26  2  0  0  0  0
 25 27  1  0  0  0  0
 26 52  1  0  0  0  0
 27 53  1  0  0  0  0
 29 30  1  0  0  0  0
 29 32  2  0  0  0  0
 30 31  2  0  0  0  0
 30 58  1  0  0  0  0
 31 33  1  0  0  0  0
 31 35  1  0  0  0  0
 32 34  1  0  0  0  0
 32 59  1  0  0  0  0
 33 34  2  0  0  0  0
 33 60  1  0  0  0  0
 34 61  1  0  0  0  0
 35 62  1  0  0  0  0
 35 63  1  0  0  0  0
 35 64  1  0  0  0  0
M  END
> <PUBCHEM_COMPOUND_CID>
18451135

> <PUBCHEM_CONFORMER_RMSD>
1

> <PUBCHEM_CONFORMER_DIVERSEORDER>
1
18
10
2
19
7
22
6
20
16
3
15
11
8
4
21
17
5
12
9
13
14
23

> <PUBCHEM_MMFF94_PARTIAL_CHARGES>
46
1 -0.08
13 -0.2
15 -0.05
16 0.04
17 0.07
18 0.05
19 -0.07
2 -0.57
20 0.41
21 -0.11
22 0.16
23 -0.15
24 -0.15
25 0.12
26 -0.15
27 -0.15
28 0.69
29 0.12
3 -0.99
30 -0.15
31 -0.14
32 -0.15
33 -0.15
34 -0.15
35 0.14
4 -0.62
46 0.36
47 0.36
48 0.15
49 0.15
5 -0.9
50 0.15
51 0.15
52 0.15
53 0.15
54 0.4
55 0.4
56 0.37
57 0.37
58 0.15
59 0.15
6 -0.55
60 0.15
61 0.15
7 -0.55
8 0.47

> <PUBCHEM_EFFECTIVE_ROTOR_COUNT>
7

> <PUBCHEM_PHARMACOPHORE_FEATURES>
13
1 11 hydrophobe
1 12 hydrophobe
1 2 acceptor
1 3 cation
1 3 donor
1 5 donor
1 6 donor
1 7 donor
3 4 5 20 cation
5 1 14 15 16 21 rings
6 18 23 24 25 26 27 rings
6 29 30 31 32 33 34 rings
6 4 14 16 17 20 22 rings

> <PUBCHEM_HEAVY_ATOM_COUNT>
35

> <PUBCHEM_ATOM_DEF_STEREO_COUNT>
0

> <PUBCHEM_ATOM_UDEF_STEREO_COUNT>
0

> <PUBCHEM_BOND_DEF_STEREO_COUNT>
0

> <PUBCHEM_BOND_UDEF_STEREO_COUNT>
0

> <PUBCHEM_ISOTOPIC_ATOM_COUNT>
0

> <PUBCHEM_COMPONENT_COUNT>
1

> <PUBCHEM_CACTVS_TAUTO_COUNT>
6

> <PUBCHEM_CONFORMER_ID>
01198ABF00000001

> <PUBCHEM_MMFF94_ENERGY>
93.2562

> <PUBCHEM_FEATURE_SELFOVERLAP>
66.085

> <PUBCHEM_SHAPE_FINGERPRINT>
10 15 15213296427125577385
10165383 225 17603303765231365394
10299344 5 17490148617871710039
106641 1 13840263698017126961
11061554 47 16877657967888007852
11211813 74 18335705009915210236
11409948 35 17822566102411490354
11409948 41 17917429766390148566
12089408 11 16845570942083175177
12522641 33 18040714753864470699
12664476 115 18186799184450342989
13165054 160 12252170893555051376
14117953 113 18131355219718663292
14251764 46 16081369652989198499
14294032 229 16127832773112843385
15183329 4 16415480476779020569
15247644 1 13398634956679183997
15392192 104 14706926242236491553
15461852 350 16200157577348899713
15510794 2 18186525406276813171
15773216 30 17313658231705526282
15840311 113 16773790433676372848
21792934 111 18409442614907415432
21792938 131 18041835101227724986
21895431 317 15912779280851143318
232437 2 14908181954253827487
24893992 56 18114181969132228507
249057 3 18272367603124173271
3092352 35 17775283886124498503
335352 9 18343868831641327956
4625314 4 18187086203997606791
58083652 198 18200885062653464832
58902169 19 17774714377160151221
59521099 67 17275383235673689880
59682541 35 10952048961408908508
6081469 158 18260266339320052780
9663363 56 18412260645902526104

> <PUBCHEM_SHAPE_MULTIPOLES>
693.36
40.87
1.93
1.4
51.17
0.25
0.23
0.19
14.58
-5.95
-0.19
1.55
0.12
0.83

> <PUBCHEM_SHAPE_SELFOVERLAP>
1487.635

> <PUBCHEM_SHAPE_VOLUME>
385.7

> <PUBCHEM_COORDINATE_TYPE>
2
5
10

$$$$
18451363
  -OEChem-05102415023D

 45 48  0     0  0  0  0  0  0999 V2000
   -6.5858    0.0024   -2.1532 S   0  0  0  0  0  0  0  0  0  0  0  0
    7.1598    2.1081    0.4653 F   0  0  0  0  0  0  0  0  0  0  0  0
    5.4078    2.2102   -0.8091 F   0  0  0  0  0  0  0  0  0  0  0  0
    5.1728    2.0438    1.3462 F   0  0  0  0  0  0  0  0  0  0  0  0
    1.9367   -1.6690   -0.3492 O   0  0  0  0  0  0  0  0  0  0  0  0
    1.2183    0.5599   -0.2778 N   0  0  0  0  0  0  0  0  0  0  0  0
   -6.3196   -0.2284    2.3121 N   0  0  0  0  0  0  0  0  0  0  0  0
    3.4675    0.0768   -0.0697 N   0  0  0  0  0  0  0  0  0  0  0  0
   -3.9719   -0.0164    2.1402 N   0  0  0  0  0  0  0  0  0  0  0  0
   -4.3575    0.1236   -0.8991 C   0  0  0  0  0  0  0  0  0  0  0  0
   -5.3563   -0.0207    0.1210 C   0  0  0  0  0  0  0  0  0  0  0  0
   -2.9284    0.2364   -0.7395 C   0  0  0  0  0  0  0  0  0  0  0  0
   -6.6370   -0.0999   -0.4333 C   0  0  0  0  0  0  0  0  0  0  0  0
   -4.8876    0.1500   -2.1673 C   0  0  0  0  0  0  0  0  0  0  0  0
   -2.1360   -0.9115   -0.7311 C   0  0  0  0  0  0  0  0  0  0  0  0
   -2.3386    1.4921   -0.5943 C   0  0  0  0  0  0  0  0  0  0  0  0
   -5.2344   -0.0895    1.5179 C   0  0  0  0  0  0  0  0  0  0  0  0
   -0.1641    0.4519   -0.4325 C   0  0  0  0  0  0  0  0  0  0  0  0
   -0.7538   -0.8037   -0.5777 C   0  0  0  0  0  0  0  0  0  0  0  0
   -0.9565    1.6000   -0.4409 C   0  0  0  0  0  0  0  0  0  0  0  0
   -7.7713   -0.2439    0.3746 C   0  0  0  0  0  0  0  0  0  0  0  0
    4.7037   -0.6059    0.0170 C   0  0  0  0  0  0  0  0  0  0  0  0
    5.8970    0.0944    0.1934 C   0  0  0  0  0  0  0  0  0  0  0  0
   -7.5357   -0.3010    1.7369 C   0  0  0  0  0  0  0  0  0  0  0  0
    2.1870   -0.4726   -0.2429 C   0  0  0  0  0  0  0  0  0  0  0  0
    4.7191   -1.9977   -0.0750 C   0  0  0  0  0  0  0  0  0  0  0  0
    7.1056   -0.5968    0.2777 C   0  0  0  0  0  0  0  0  0  0  0  0
    5.9107    1.5852    0.2950 C   0  0  0  0  0  0  0  0  0  0  0  0
    5.9277   -2.6891    0.0095 C   0  0  0  0  0  0  0  0  0  0  0  0
    7.1208   -1.9886    0.1858 C   0  0  0  0  0  0  0  0  0  0  0  0
   -4.3658    0.2485   -3.1100 H   0  0  0  0  0  0  0  0  0  0  0  0
   -2.5814   -1.8976   -0.8419 H   0  0  0  0  0  0  0  0  0  0  0  0
   -2.9422    2.3967   -0.5973 H   0  0  0  0  0  0  0  0  0  0  0  0
   -0.2111   -1.7381   -0.5809 H   0  0  0  0  0  0  0  0  0  0  0  0
   -0.5103    2.5848   -0.3281 H   0  0  0  0  0  0  0  0  0  0  0  0
   -8.7719   -0.3071   -0.0361 H   0  0  0  0  0  0  0  0  0  0  0  0
    1.5736    1.5075   -0.1772 H   0  0  0  0  0  0  0  0  0  0  0  0
   -8.3632   -0.4120    2.4310 H   0  0  0  0  0  0  0  0  0  0  0  0
    3.5138    1.0892    0.0033 H   0  0  0  0  0  0  0  0  0  0  0  0
    3.8455   -2.6176   -0.2116 H   0  0  0  0  0  0  0  0  0  0  0  0
    8.0469   -0.0720    0.4149 H   0  0  0  0  0  0  0  0  0  0  0  0
   -3.9400   -0.0718    3.1500 H   0  0  0  0  0  0  0  0  0  0  0  0
   -3.1101    0.0858    1.6323 H   0  0  0  0  0  0  0  0  0  0  0  0
    5.9413   -3.7729   -0.0620 H   0  0  0  0  0  0  0  0  0  0  0  0
    8.0617   -2.5271    0.2515 H   0  0  0  0  0  0  0  0  0  0  0  0
  1 13  1  0  0  0  0
  1 14  1  0  0  0  0
  2 28  1  0  0  0  0
  3 28  1  0  0  0  0
  4 28  1  0  0  0  0
  5 25  2  0  0  0  0
  6 18  1  0  0  0  0
  6 25  1  0  0  0  0
  6 37  1  0  0  0  0
  7 17  2  0  0  0  0
  7 24  1  0  0  0  0
  8 22  1  0  0  0  0
  8 25  1  0  0  0  0
  8 39  1  0  0  0  0
  9 17  1  0  0  0  0
  9 42  1  0  0  0  0
  9 43  1  0  0  0  0
 10 11  1  0  0  0  0
 10 12  1  0  0  0  0
 10 14  2  0  0  0  0
 11 13  2  0  0  0  0
 11 17  1  0  0  0  0
 12 15  2  0  0  0  0
 12 16  1  0  0  0  0
 13 21  1  0  0  0  0
 14 31  1  0  0  0  0
 15 19  1  0  0  0  0
 15 32  1  0  0  0  0
 16 20  2  0  0  0  0
 16 33  1  0  0  0  0
 18 19  2  0  0  0  0
 18 20  1  0  0  0  0
 19 34  1  0  0  0  0
 20 35  1  0  0  0  0
 21 24  2  0  0  0  0
 21 36  1  0  0  0  0
 22 23  1  0  0  0  0
 22 26  2  0  0  0  0
 23 27  2  0  0  0  0
 23 28  1  0  0  0  0
 24 38  1  0  0  0  0
 26 29  1  0  0  0  0
 26 40  1  0  0  0  0
 27 30  1  0  0  0  0
 27 41  1  0  0  0  0
 29 30  2  0  0  0  0
 29 44  1  0  0  0  0
 30 45  1  0  0  0  0
M  END
> <PUBCHEM_COMPOUND_CID>
18451363

> <PUBCHEM_CONFORMER_RMSD>
0.8

> <PUBCHEM_CONFORMER_DIVERSEORDER>
1
22
26
19
6
7
24
8
21
11
3
9
14
10
5
27
4
25
2
28
20
23
18
15
12
13
16
17

> <PUBCHEM_MMFF94_PARTIAL_CHARGES>
44
1 -0.08
10 -0.05
12 0.05
13 0.04
14 -0.11
15 -0.15
16 -0.15
17 0.41
18 0.12
19 -0.15
2 -0.34
20 -0.15
21 -0.15
22 0.12
23 -0.14
24 0.16
25 0.69
26 -0.15
27 -0.15
28 1.16
29 -0.15
3 -0.34
30 -0.15
31 0.15
32 0.15
33 0.15
34 0.15
35 0.15
36 0.15
37 0.37
38 0.15
39 0.37
4 -0.34
40 0.15
41 0.15
42 0.4
43 0.4
44 0.15
45 0.15
5 -0.57
6 -0.55
7 -0.62
8 -0.55
9 -0.9

> <PUBCHEM_EFFECTIVE_ROTOR_COUNT>
6

> <PUBCHEM_PHARMACOPHORE_FEATURES>
9
1 5 acceptor
1 6 donor
1 8 donor
1 9 donor
3 7 9 17 cation
5 1 10 11 13 14 rings
6 12 15 16 18 19 20 rings
6 22 23 26 27 29 30 rings
6 7 11 13 17 21 24 rings

> <PUBCHEM_HEAVY_ATOM_COUNT>
30

> <PUBCHEM_ATOM_DEF_STEREO_COUNT>
0

> <PUBCHEM_ATOM_UDEF_STEREO_COUNT>
0

> <PUBCHEM_BOND_DEF_STEREO_COUNT>
0

> <PUBCHEM_BOND_UDEF_STEREO_COUNT>
0

> <PUBCHEM_ISOTOPIC_ATOM_COUNT>
0

> <PUBCHEM_COMPONENT_COUNT>
1

> <PUBCHEM_CACTVS_TAUTO_COUNT>
6

> <PUBCHEM_CONFORMER_ID>
01198BA300000001

> <PUBCHEM_MMFF94_ENERGY>
91.0267

> <PUBCHEM_FEATURE_SELFOVERLAP>
45.785

> <PUBCHEM_SHAPE_FINGERPRINT>
10 15 17676205818464185476
10299344 5 17704069598958713222
10638233 991 17704350004515201032
11315181 36 14418139509243579015
11524674 6 17967535683978536763
11719270 70 17095240311197966266
12098696 120 18115031922456027620
12236239 1 17632294575741786983
13533116 47 18343015580648237838
14251764 18 17632574963785764575
14849402 71 17774438407682791281
14856354 85 16486967428055023437
150020 25 17676485016860329070
15183329 4 17131834287126249096
15328684 2 17131554916768657259
15352257 5 17312823749323633179
15392192 104 17775290490581712447
15419008 47 17676200273392986077
15419008 91 17240749718488042445
15510794 2 17749385962065433243
15716309 27 18272931609634027767
1577012 14 17489870448811963985
17844677 252 18339361864696462988
19377110 9 17846218825884224144
20157964 124 18411414021653745878
21267235 1 18410576142005963710
21315759 40 17775559832217353990
21521721 280 18342175587628788642
21623969 137 18334299738531409935
21792934 111 18410849932727402053
23081809 10 17632572755792863958
23522609 53 17703523184571937792
23559900 14 18339067310974786053
249057 3 15791452622074854815
2747138 104 18040442087585517665
3004659 81 15719401632805168598
3044373 193 16660649596214500244
3383291 50 17385732421871027867
3418910 222 17385736802263488108
394071 54 18342177791136973964
397830 11 17531534298800033412
4073 2 18260827155065403818
437795 51 18186521007876562546
445580 37 15267070254820829299
44880568 143 16805323271313743349
5085150 59 16153427259811770107
5104073 3 18263078825734444024
57527295 17 17897701243054905719
5758199 1 17775566450704019159
58083652 198 18343291561750419041
6691757 9 16487255492144887287
9962374 69 18340473496949399318
999808 66 18113623370170685459

> <PUBCHEM_SHAPE_MULTIPOLES>
573.62
26.07
1.89
1.61
8.16
0.16
0.34
-3.22
5.07
5.35
0.03
-4.43
0
1.68

> <PUBCHEM_SHAPE_SELFOVERLAP>
1262.214

> <PUBCHEM_SHAPE_VOLUME>
313.2

> <PUBCHEM_COORDINATE_TYPE>
2
5
10

$$$$
49830350
  -OEChem-05102415023D

 54 58  0     0  0  0  0  0  0999 V2000
    3.9971    1.8136    0.1082 S   0  0  0  0  0  0  0  0  0  0  0  0
  -10.9021   -0.2141    0.8397 F   0  0  0  0  0  0  0  0  0  0  0  0
   -4.6436    0.2853   -1.2084 O   0  0  0  0  0  0  0  0  0  0  0  0
    3.5549   -2.6430    0.0282 N   0  0  0  0  0  0  0  0  0  0  0  0
    1.2232   -2.3727    0.3084 N   0  0  0  0  0  0  0  0  0  0  0  0
   -3.8467    0.2560    0.9947 N   0  0  0  0  0  0  0  0  0  0  0  0
    8.5062    0.3846    0.8015 N   0  0  0  0  0  0  0  0  0  0  0  0
   -6.1183    0.1182    0.5989 N   0  0  0  0  0  0  0  0  0  0  0  0
    2.6827   -0.4108    0.1981 C   0  0  0  0  0  0  0  0  0  0  0  0
    1.7286    0.6512    0.3431 C   0  0  0  0  0  0  0  0  0  0  0  0
    3.9798    0.0907    0.0591 C   0  0  0  0  0  0  0  0  0  0  0  0
    5.0773   -0.7645   -0.0967 C   0  0  0  0  0  0  0  0  0  0  0  0
    0.2994    0.5506    0.5100 C   0  0  0  0  0  0  0  0  0  0  0  0
    2.5058   -1.8034    0.1775 C   0  0  0  0  0  0  0  0  0  0  0  0
    2.3067    1.8981    0.3115 C   0  0  0  0  0  0  0  0  0  0  0  0
    6.4274   -0.2769   -0.2406 C   0  0  0  0  0  0  0  0  0  0  0  0
    4.7887   -2.1178   -0.1025 C   0  0  0  0  0  0  0  0  0  0  0  0
   -0.5342    0.5378   -0.6083 C   0  0  0  0  0  0  0  0  0  0  0  0
   -0.2490    0.4655    1.7897 C   0  0  0  0  0  0  0  0  0  0  0  0
   -2.4645    0.3550    0.8329 C   0  0  0  0  0  0  0  0  0  0  0  0
   -1.9162    0.4400   -0.4469 C   0  0  0  0  0  0  0  0  0  0  0  0
   -1.6309    0.3677    1.9512 C   0  0  0  0  0  0  0  0  0  0  0  0
    6.9596    0.0003   -1.4950 C   0  0  0  0  0  0  0  0  0  0  0  0
    7.2345   -0.0697    0.8664 C   0  0  0  0  0  0  0  0  0  0  0  0
    8.2642    0.4693   -1.6024 C   0  0  0  0  0  0  0  0  0  0  0  0
    8.9891    0.6429   -0.4345 C   0  0  0  0  0  0  0  0  0  0  0  0
   -4.8535    0.2258   -0.0011 C   0  0  0  0  0  0  0  0  0  0  0  0
   10.3919    1.1463   -0.5124 C   0  0  0  0  0  0  0  0  0  0  0  0
   -7.3811    0.0572   -0.0363 C   0  0  0  0  0  0  0  0  0  0  0  0
   -8.5418   -0.0504    0.7298 C   0  0  0  0  0  0  0  0  0  0  0  0
   -7.4657    0.1033   -1.4279 C   0  0  0  0  0  0  0  0  0  0  0  0
   -9.7870   -0.1119    0.1044 C   0  0  0  0  0  0  0  0  0  0  0  0
   -8.7109    0.0417   -2.0532 C   0  0  0  0  0  0  0  0  0  0  0  0
   -9.8716   -0.0660   -1.2871 C   0  0  0  0  0  0  0  0  0  0  0  0
    1.8247    2.8630    0.3975 H   0  0  0  0  0  0  0  0  0  0  0  0
    5.5760   -2.8585   -0.2176 H   0  0  0  0  0  0  0  0  0  0  0  0
   -0.1214    0.6021   -1.6124 H   0  0  0  0  0  0  0  0  0  0  0  0
    0.3870    0.4727    2.6718 H   0  0  0  0  0  0  0  0  0  0  0  0
   -2.4924    0.4361   -1.3610 H   0  0  0  0  0  0  0  0  0  0  0  0
   -2.0445    0.3015    2.9543 H   0  0  0  0  0  0  0  0  0  0  0  0
    6.3708   -0.1438   -2.3976 H   0  0  0  0  0  0  0  0  0  0  0  0
    6.8796   -0.2665    1.8740 H   0  0  0  0  0  0  0  0  0  0  0  0
    1.1507   -3.3818    0.2856 H   0  0  0  0  0  0  0  0  0  0  0  0
    0.3854   -1.8286    0.4221 H   0  0  0  0  0  0  0  0  0  0  0  0
    8.6902    0.6893   -2.5754 H   0  0  0  0  0  0  0  0  0  0  0  0
   -4.1709    0.1978    1.9570 H   0  0  0  0  0  0  0  0  0  0  0  0
   11.0105    0.4603   -1.0998 H   0  0  0  0  0  0  0  0  0  0  0  0
   10.8356    1.2307    0.4852 H   0  0  0  0  0  0  0  0  0  0  0  0
   10.4156    2.1370   -0.9771 H   0  0  0  0  0  0  0  0  0  0  0  0
   -6.1397    0.0785    1.6147 H   0  0  0  0  0  0  0  0  0  0  0  0
   -8.4903   -0.0873    1.8149 H   0  0  0  0  0  0  0  0  0  0  0  0
   -6.6156    0.1859   -2.0898 H   0  0  0  0  0  0  0  0  0  0  0  0
   -8.7784    0.0775   -3.1367 H   0  0  0  0  0  0  0  0  0  0  0  0
  -10.8412   -0.1138   -1.7738 H   0  0  0  0  0  0  0  0  0  0  0  0
  1 11  1  0  0  0  0
  1 15  1  0  0  0  0
  2 32  1  0  0  0  0
  3 27  2  0  0  0  0
  4 14  2  0  0  0  0
  4 17  1  0  0  0  0
  5 14  1  0  0  0  0
  5 43  1  0  0  0  0
  5 44  1  0  0  0  0
  6 20  1  0  0  0  0
  6 27  1  0  0  0  0
  6 46  1  0  0  0  0
  7 24  1  0  0  0  0
  7 26  2  0  0  0  0
  8 27  1  0  0  0  0
  8 29  1  0  0  0  0
  8 50  1  0  0  0  0
  9 10  1  0  0  0  0
  9 11  2  0  0  0  0
  9 14  1  0  0  0  0
 10 13  1  0  0  0  0
 10 15  2  0  0  0  0
 11 12  1  0  0  0  0
 12 16  1  0  0  0  0
 12 17  2  0  0  0  0
 13 18  2  0  0  0  0
 13 19  1  0  0  0  0
 15 35  1  0  0  0  0
 16 23  1  0  0  0  0
 16 24  2  0  0  0  0
 17 36  1  0  0  0  0
 18 21  1  0  0  0  0
 18 37  1  0  0  0  0
 19 22  2  0  0  0  0
 19 38  1  0  0  0  0
 20 21  2  0  0  0  0
 20 22  1  0  0  0  0
 21 39  1  0  0  0  0
 22 40  1  0  0  0  0
 23 25  2  0  0  0  0
 23 41  1  0  0  0  0
 24 42  1  0  0  0  0
 25 26  1  0  0  0  0
 25 45  1  0  0  0  0
 26 28  1  0  0  0  0
 28 47  1  0  0  0  0
 28 48  1  0  0  0  0
 28 49  1  0  0  0  0
 29 30  2  0  0  0  0
 29 31  1  0  0  0  0
 30 32  1  0  0  0  0
 30 51  1  0  0  0  0
 31 33  2  0  0  0  0
 31 52  1  0  0  0  0
 32 34  2  0  0  0  0
 33 34  1  0  0  0  0
 33 53  1  0  0  0  0
 34 54  1  0  0  0  0
M  END
> <PUBCHEM_COMPOUND_CID>
49830350

> <PUBCHEM_CONFORMER_RMSD>
0.8

> <PUBCHEM_CONFORMER_DIVERSEORDER>
1
41
32
11
45
33
34
7
23
30
40
17
42
12
16
19
44
14
21
25
39
35
15
9
18
5
43
20
10
29
8
26
24
6
37
38
31
22
13
27
36
3
4
28
2

> <PUBCHEM_MMFF94_PARTIAL_CHARGES>
48
1 -0.08
10 -0.05
11 0.04
13 0.05
14 0.41
15 -0.11
17 0.16
18 -0.15
19 -0.15
2 -0.19
20 0.12
21 -0.15
22 -0.15
23 -0.15
24 0.16
25 -0.15
26 0.17
27 0.69
28 0.14
29 0.12
3 -0.57
30 -0.15
31 -0.15
32 0.19
33 -0.15
34 -0.15
35 0.15
36 0.15
37 0.15
38 0.15
39 0.15
4 -0.62
40 0.15
41 0.15
42 0.15
43 0.4
44 0.4
45 0.15
46 0.37
5 -0.9
50 0.37
51 0.15
52 0.15
53 0.15
54 0.15
6 -0.55
7 -0.62
8 -0.55

> <PUBCHEM_EFFECTIVE_ROTOR_COUNT>
6

> <PUBCHEM_PHARMACOPHORE_FEATURES>
11
1 3 acceptor
1 5 donor
1 6 donor
1 7 acceptor
1 8 donor
3 4 5 14 cation
5 1 9 10 11 15 rings
6 13 18 19 20 21 22 rings
6 29 30 31 32 33 34 rings
6 4 9 11 12 14 17 rings
6 7 16 23 24 25 26 rings

> <PUBCHEM_HEAVY_ATOM_COUNT>
34

> <PUBCHEM_ATOM_DEF_STEREO_COUNT>
0

> <PUBCHEM_ATOM_UDEF_STEREO_COUNT>
0

> <PUBCHEM_BOND_DEF_STEREO_COUNT>
0

> <PUBCHEM_BOND_UDEF_STEREO_COUNT>
0

> <PUBCHEM_ISOTOPIC_ATOM_COUNT>
0

> <PUBCHEM_COMPONENT_COUNT>
1

> <PUBCHEM_CACTVS_TAUTO_COUNT>
6

> <PUBCHEM_CONFORMER_ID>
02F859CE00000001

> <PUBCHEM_MMFF94_ENERGY>
113.1673

> <PUBCHEM_FEATURE_SELFOVERLAP>
55.936

> <PUBCHEM_SHAPE_FINGERPRINT>
10076449 9 18343018887567918549
10162869 55 18410855481666477253
10299344 5 17917991673114057919
10533779 47 10880001284799043261
11135609 127 16660656206232017692
11409948 35 15574982924988063538
11443803 9 14923943453438380225
11607047 74 16271349955185226320
12013929 94 16415194607475993687
12089408 11 17917996040141022651
12144603 126 17632580444427824121
12236239 1 17632582604880750536
12522641 24 17131825500203450056
12539745 222 13254807819654899483
12664476 115 17676202477317519197
12741549 16 17894623756626647444
12838862 33 18408879655762230914
13617811 41 18408606959926240828
14118638 360 18338516335421587953
14251764 46 18410293614071168793
14344974 52 17022906791681668837
15061470 23 15864066577211760621
15065858 18 17385438809063439043
15183329 4 18411975850699850115
15840311 113 16702296893551656520
16728433 110 17917708033326572913
1818759 1 16917350342488838111
18365409 1 17631727292219632262
19841028 212 17274831190172571910
20105231 36 15195570091787938636
20771845 171 17894639120156791478
21267235 1 15985104110862265001
21362267 2 17822845506882051732
21591340 7 13406796636102902161
232437 2 15913330195240628685
23522609 53 17559978644228422857
249057 3 18411136969855014077
3092352 35 16702027462380213700
335352 9 18342459261918742612
335507 130 18259703407000051877
395649 100 14779555621571505345
45377200 153 15984813878885452375
5028188 123 17894909638945782119
54039377 194 16702582740651891465
57303763 39 14332830669117694052
5937810 71 17459182998816367333
59520757 100 17969226797365849586
6081469 158 17530680996336037676
9663363 56 18334293185455710776

> <PUBCHEM_SHAPE_MULTIPOLES>
665.51
37.39
1.52
1.42
46.45
0.78
-0.2
-2.13
-12.05
-2.9
0.18
1.34
-0.13
-0.62

> <PUBCHEM_SHAPE_SELFOVERLAP>
1474.017

> <PUBCHEM_SHAPE_VOLUME>
361.3

> <PUBCHEM_COORDINATE_TYPE>
2
5
10

$$$$
49830352
  -OEChem-05102415023D

 56 60  0     0  0  0  0  0  0999 V2000
    5.2553    0.6097   -1.7960 S   0  0  0  0  0  0  0  0  0  0  0  0
  -11.3431   -2.2448    0.5672 F   0  0  0  0  0  0  0  0  0  0  0  0
  -10.0928   -2.6774   -1.1586 F   0  0  0  0  0  0  0  0  0  0  0  0
   -3.4661   -0.3891   -0.5042 O   0  0  0  0  0  0  0  0  0  0  0  0
   -9.9445   -0.6492   -0.1624 O   0  0  0  0  0  0  0  0  0  0  0  0
    4.8037   -0.6837    2.4685 N   0  0  0  0  0  0  0  0  0  0  0  0
    9.5303   -1.3528   -0.6131 N   0  0  0  0  0  0  0  0  0  0  0  0
    2.5043   -0.1504    2.3410 N   0  0  0  0  0  0  0  0  0  0  0  0
    9.6590   -0.0451   -0.8950 N   0  0  0  0  0  0  0  0  0  0  0  0
   -2.4896    1.6462    0.1229 N   0  0  0  0  0  0  0  0  0  0  0  0
   -4.7862    1.4101    0.1952 N   0  0  0  0  0  0  0  0  0  0  0  0
    3.9507    0.1759    0.3935 C   0  0  0  0  0  0  0  0  0  0  0  0
    5.2324    0.0800   -0.1559 C   0  0  0  0  0  0  0  0  0  0  0  0
    3.0131    0.6894   -0.5637 C   0  0  0  0  0  0  0  0  0  0  0  0
    6.3122   -0.3971    0.5966 C   0  0  0  0  0  0  0  0  0  0  0  0
    1.6025    0.9348   -0.3885 C   0  0  0  0  0  0  0  0  0  0  0  0
    3.7715   -0.2210    1.7282 C   0  0  0  0  0  0  0  0  0  0  0  0
    7.6309   -0.5031    0.0509 C   0  0  0  0  0  0  0  0  0  0  0  0
    3.5878    0.9633   -1.7821 C   0  0  0  0  0  0  0  0  0  0  0  0
    6.0229   -0.7599    1.9003 C   0  0  0  0  0  0  0  0  0  0  0  0
    0.6790   -0.0720   -0.6705 C   0  0  0  0  0  0  0  0  0  0  0  0
    1.1619    2.1785    0.0638 C   0  0  0  0  0  0  0  0  0  0  0  0
    8.3339   -1.6792   -0.0453 C   0  0  0  0  0  0  0  0  0  0  0  0
   -1.1254    1.4091   -0.0484 C   0  0  0  0  0  0  0  0  0  0  0  0
    8.4956    0.4688   -0.4872 C   0  0  0  0  0  0  0  0  0  0  0  0
   -0.6849    0.1652   -0.5006 C   0  0  0  0  0  0  0  0  0  0  0  0
   -0.2021    2.4158    0.2338 C   0  0  0  0  0  0  0  0  0  0  0  0
   10.6104   -2.2610   -0.9163 C   0  0  0  0  0  0  0  0  0  0  0  0
   -3.5753    0.7656   -0.1044 C   0  0  0  0  0  0  0  0  0  0  0  0
   -6.0974    0.8863    0.1042 C   0  0  0  0  0  0  0  0  0  0  0  0
   -7.1911    1.6814    0.4466 C   0  0  0  0  0  0  0  0  0  0  0  0
   -6.2966   -0.4250   -0.3280 C   0  0  0  0  0  0  0  0  0  0  0  0
   -8.6830   -0.1459   -0.0748 C   0  0  0  0  0  0  0  0  0  0  0  0
   -8.4839    1.1655    0.3572 C   0  0  0  0  0  0  0  0  0  0  0  0
   -7.5893   -0.9410   -0.4174 C   0  0  0  0  0  0  0  0  0  0  0  0
  -10.1063   -2.0479    0.0420 C   0  0  0  0  0  0  0  0  0  0  0  0
    3.1155    1.3553   -2.6732 H   0  0  0  0  0  0  0  0  0  0  0  0
    6.7961   -1.1386    2.5639 H   0  0  0  0  0  0  0  0  0  0  0  0
    1.0074   -1.0473   -1.0226 H   0  0  0  0  0  0  0  0  0  0  0  0
    1.8687    2.9735    0.2896 H   0  0  0  0  0  0  0  0  0  0  0  0
    8.0916   -2.6963    0.2335 H   0  0  0  0  0  0  0  0  0  0  0  0
    8.3336    1.5319   -0.5977 H   0  0  0  0  0  0  0  0  0  0  0  0
   -1.3349   -0.6642   -0.7398 H   0  0  0  0  0  0  0  0  0  0  0  0
   -0.5312    3.3896    0.5875 H   0  0  0  0  0  0  0  0  0  0  0  0
    2.4295   -0.4492    3.3049 H   0  0  0  0  0  0  0  0  0  0  0  0
    1.6796    0.1794    1.8698 H   0  0  0  0  0  0  0  0  0  0  0  0
   -2.7330    2.5760    0.4554 H   0  0  0  0  0  0  0  0  0  0  0  0
   10.7979   -2.2249   -1.9924 H   0  0  0  0  0  0  0  0  0  0  0  0
   11.4951   -1.9409   -0.3603 H   0  0  0  0  0  0  0  0  0  0  0  0
   10.3296   -3.2746   -0.6200 H   0  0  0  0  0  0  0  0  0  0  0  0
   -4.7235    2.3723    0.5180 H   0  0  0  0  0  0  0  0  0  0  0  0
   -7.0497    2.7048    0.7848 H   0  0  0  0  0  0  0  0  0  0  0  0
   -5.5039   -1.1001   -0.6167 H   0  0  0  0  0  0  0  0  0  0  0  0
   -9.3320    1.7896    0.6254 H   0  0  0  0  0  0  0  0  0  0  0  0
   -7.7049   -1.9571   -0.7833 H   0  0  0  0  0  0  0  0  0  0  0  0
   -9.3773   -2.4969    0.7257 H   0  0  0  0  0  0  0  0  0  0  0  0
  1 13  1  0  0  0  0
  1 19  1  0  0  0  0
  2 36  1  0  0  0  0
  3 36  1  0  0  0  0
  4 29  2  0  0  0  0
  5 33  1  0  0  0  0
  5 36  1  0  0  0  0
  6 17  2  0  0  0  0
  6 20  1  0  0  0  0
  7  9  1  0  0  0  0
  7 23  1  0  0  0  0
  7 28  1  0  0  0  0
  8 17  1  0  0  0  0
  8 45  1  0  0  0  0
  8 46  1  0  0  0  0
  9 25  2  0  0  0  0
 10 24  1  0  0  0  0
 10 29  1  0  0  0  0
 10 47  1  0  0  0  0
 11 29  1  0  0  0  0
 11 30  1  0  0  0  0
 11 51  1  0  0  0  0
 12 13  2  0  0  0  0
 12 14  1  0  0  0  0
 12 17  1  0  0  0  0
 13 15  1  0  0  0  0
 14 16  1  0  0  0  0
 14 19  2  0  0  0  0
 15 18  1  0  0  0  0
 15 20  2  0  0  0  0
 16 21  2  0  0  0  0
 16 22  1  0  0  0  0
 18 23  2  0  0  0  0
 18 25  1  0  0  0  0
 19 37  1  0  0  0  0
 20 38  1  0  0  0  0
 21 26  1  0  0  0  0
 21 39  1  0  0  0  0
 22 27  2  0  0  0  0
 22 40  1  0  0  0  0
 23 41  1  0  0  0  0
 24 26  2  0  0  0  0
 24 27  1  0  0  0  0
 25 42  1  0  0  0  0
 26 43  1  0  0  0  0
 27 44  1  0  0  0  0
 28 48  1  0  0  0  0
 28 49  1  0  0  0  0
 28 50  1  0  0  0  0
 30 31  2  0  0  0  0
 30 32  1  0  0  0  0
 31 34  1  0  0  0  0
 31 52  1  0  0  0  0
 32 35  2  0  0  0  0
 32 53  1  0  0  0  0
 33 34  2  0  0  0  0
 33 35  1  0  0  0  0
 34 54  1  0  0  0  0
 35 55  1  0  0  0  0
 36 56  1  0  0  0  0
M  END
> <PUBCHEM_COMPOUND_CID>
49830352

> <PUBCHEM_CONFORMER_RMSD>
1

> <PUBCHEM_CONFORMER_DIVERSEORDER>
1
7
9
3
6
14
11
4
13
17
19
8
5
10
2
18
12
16
15
20

> <PUBCHEM_MMFF94_PARTIAL_CHARGES>
51
1 -0.08
10 -0.55
11 -0.55
13 0.04
14 -0.05
15 0.05
16 0.05
17 0.41
18 -0.05
19 -0.11
2 -0.34
20 0.16
21 -0.15
22 -0.15
23 -0.3
24 0.12
25 0.14
26 -0.15
27 -0.15
28 0.26
29 0.69
3 -0.34
30 0.12
31 -0.15
32 -0.15
33 0.08
34 -0.15
35 -0.15
36 0.96
37 0.15
38 0.15
39 0.15
4 -0.57
40 0.15
41 0.15
42 0.15
43 0.15
44 0.15
45 0.4
46 0.4
47 0.37
5 -0.36
51 0.37
52 0.15
53 0.15
54 0.15
55 0.15
6 -0.62
7 0.31
8 -0.9
9 -0.71

> <PUBCHEM_EFFECTIVE_ROTOR_COUNT>
8

> <PUBCHEM_PHARMACOPHORE_FEATURES>
12
1 10 donor
1 11 donor
1 4 acceptor
1 5 acceptor
1 8 donor
1 9 acceptor
3 6 8 17 cation
5 1 12 13 14 19 rings
5 7 9 18 23 25 rings
6 16 21 22 24 26 27 rings
6 30 31 32 33 34 35 rings
6 6 12 13 15 17 20 rings

> <PUBCHEM_HEAVY_ATOM_COUNT>
36

> <PUBCHEM_ATOM_DEF_STEREO_COUNT>
0

> <PUBCHEM_ATOM_UDEF_STEREO_COUNT>
0

> <PUBCHEM_BOND_DEF_STEREO_COUNT>
0

> <PUBCHEM_BOND_UDEF_STEREO_COUNT>
0

> <PUBCHEM_ISOTOPIC_ATOM_COUNT>
0

> <PUBCHEM_COMPONENT_COUNT>
1

> <PUBCHEM_CACTVS_TAUTO_COUNT>
6

> <PUBCHEM_CONFORMER_ID>
02F859D000000001

> <PUBCHEM_MMFF94_ENERGY>
114.3687

> <PUBCHEM_FEATURE_SELFOVERLAP>
61.011

> <PUBCHEM_SHAPE_FINGERPRINT>
10076449 9 17022621961671063805
10162869 55 17167863079797426628
10299344 5 17967813838792033049
10533779 47 15985112890186959502
11386260 185 15574718032125864653
11456790 92 15339117944358692227
11534866 41 17489873722258078782
11607047 74 18266180707641974996
12013929 94 18410858762984483786
12089408 11 18408045099923666245
12498461 61 17846775226719986263
12539745 222 18060422374742941801
12592606 108 18334574646750453833
12741549 16 16988840541678339696
13553643 46 12751235891937461739
14117953 113 16153716414511667742
14118638 360 15864343606338520500
14202775 3 18343308045845788726
150020 25 14345796050550940905
15065858 18 18343015584231535749
15183329 4 17095239220793153065
15198563 99 14851874817340215407
15247644 1 18335423478629274659
15510794 2 17988928851005913591
15840311 113 18334860537676887868
16728433 110 18261110811331866413
16728433 281 14057821791894657695
1818759 1 18410855455981089007
19315958 150 15770061631097185492
20105231 36 18341331111607552278
20721686 124 13045941292656022664
21362267 20 18273212019486600695
21792938 703 18335431157196986891
232437 2 18412827979698758094
23522609 53 17970374575878620693
24893992 56 16343695547605885550
249057 3 16370733642608627828
3178227 256 15554440787758753692
335352 9 17313107449430369544
3383291 50 18060700628947548855
54039377 194 18408886239699318733
57303763 39 17987796444724907502
6081469 158 16988562386346987448
9962374 69 18409444821228005285

> <PUBCHEM_SHAPE_MULTIPOLES>
688.54
41.41
2.05
1.43
51.58
0.44
0.57
30.22
-5.86
3.05
-0.2
-2.86
0.23
-1.33

> <PUBCHEM_SHAPE_SELFOVERLAP>
1517.806

> <PUBCHEM_SHAPE_VOLUME>
376.6

> <PUBCHEM_COORDINATE_TYPE>
2
5
10

$$$$
49830367
  -OEChem-05102415023D

 62 66  0     1  0  0  0  0  0999 V2000
   -3.4445   -0.2596    1.7556 S   0  0  0  0  0  0  0  0  0  0  0  0
   -8.4851   -3.1313   -0.3601 O   0  0  0  0  0  0  0  0  0  0  0  0
    5.1096   -1.2582   -0.3801 O   0  0  0  0  0  0  0  0  0  0  0  0
   -7.8721   -0.1177   -0.2200 N   0  0  0  0  0  0  0  0  0  0  0  0
   -7.8306    0.5820    0.9267 N   0  0  0  0  0  0  0  0  0  0  0  0
   -2.9126    1.8800   -2.1434 N   0  0  0  0  0  0  0  0  0  0  0  0
   -0.5736    1.8175   -1.8086 N   0  0  0  0  0  0  0  0  0  0  0  0
    4.4748    0.7124    0.7172 N   0  0  0  0  0  0  0  0  0  0  0  0
    6.7143    0.2741    0.3586 N   0  0  0  0  0  0  0  0  0  0  0  0
   -2.0791    0.8403   -0.1444 C   0  0  0  0  0  0  0  0  0  0  0  0
   -3.3935    0.5631    0.2418 C   0  0  0  0  0  0  0  0  0  0  0  0
   -4.4805    0.9393   -0.5563 C   0  0  0  0  0  0  0  0  0  0  0  0
   -1.1403    0.3614    0.8295 C   0  0  0  0  0  0  0  0  0  0  0  0
   -5.8327    0.6633   -0.1776 C   0  0  0  0  0  0  0  0  0  0  0  0
   -9.0876   -0.7956   -0.6022 C   0  0  0  0  0  0  0  0  0  0  0  0
   -6.7008   -0.1007   -0.9188 C   0  0  0  0  0  0  0  0  0  0  0  0
    0.2991    0.4508    0.8012 C   0  0  0  0  0  0  0  0  0  0  0  0
   -1.8741    1.5098   -1.3613 C   0  0  0  0  0  0  0  0  0  0  0  0
   -9.2985   -2.0941    0.1853 C   0  0  1  0  0  0  0  0  0  0  0  0
   -1.7461   -0.2504    1.9012 C   0  0  0  0  0  0  0  0  0  0  0  0
   -4.1638    1.5936   -1.7338 C   0  0  0  0  0  0  0  0  0  0  0  0
   -6.5823    1.0568    0.9470 C   0  0  0  0  0  0  0  0  0  0  0  0
    1.0498   -0.5669    0.2127 C   0  0  0  0  0  0  0  0  0  0  0  0
    0.9402    1.5555    1.3617 C   0  0  0  0  0  0  0  0  0  0  0  0
  -10.7526   -2.5448    0.1296 C   0  0  0  0  0  0  0  0  0  0  0  0
    3.0828    0.6246    0.7457 C   0  0  0  0  0  0  0  0  0  0  0  0
    2.4417   -0.4802    0.1850 C   0  0  0  0  0  0  0  0  0  0  0  0
    2.3321    1.6425    1.3341 C   0  0  0  0  0  0  0  0  0  0  0  0
    5.4073   -0.2039    0.1721 C   0  0  0  0  0  0  0  0  0  0  0  0
    7.9290   -0.3348   -0.0360 C   0  0  0  0  0  0  0  0  0  0  0  0
    9.1451    0.2907    0.2385 C   0  0  0  0  0  0  0  0  0  0  0  0
   10.3422   -0.3116   -0.1488 C   0  0  0  0  0  0  0  0  0  0  0  0
    7.9099   -1.5626   -0.6977 C   0  0  0  0  0  0  0  0  0  0  0  0
   10.3231   -1.5393   -0.8107 C   0  0  0  0  0  0  0  0  0  0  0  0
    9.1070   -2.1648   -1.0851 C   0  0  0  0  0  0  0  0  0  0  0  0
   11.6425    0.3588    0.1413 C   0  0  0  0  0  0  0  0  0  0  0  0
   -9.9056   -0.0873   -0.4244 H   0  0  0  0  0  0  0  0  0  0  0  0
   -9.0353   -0.9934   -1.6791 H   0  0  0  0  0  0  0  0  0  0  0  0
   -6.5891   -0.6237   -1.8596 H   0  0  0  0  0  0  0  0  0  0  0  0
   -9.0073   -1.9626    1.2340 H   0  0  0  0  0  0  0  0  0  0  0  0
   -1.2801   -0.6968    2.7698 H   0  0  0  0  0  0  0  0  0  0  0  0
   -4.9396    1.9279   -2.4180 H   0  0  0  0  0  0  0  0  0  0  0  0
   -6.2779    1.6729    1.7815 H   0  0  0  0  0  0  0  0  0  0  0  0
    0.5642   -1.4337   -0.2296 H   0  0  0  0  0  0  0  0  0  0  0  0
    0.3697    2.3582    1.8231 H   0  0  0  0  0  0  0  0  0  0  0  0
  -11.0615   -2.7396   -0.9034 H   0  0  0  0  0  0  0  0  0  0  0  0
  -10.8864   -3.4823    0.6802 H   0  0  0  0  0  0  0  0  0  0  0  0
  -11.4196   -1.7918    0.5601 H   0  0  0  0  0  0  0  0  0  0  0  0
    2.9503   -1.3076   -0.2885 H   0  0  0  0  0  0  0  0  0  0  0  0
    2.8185    2.5093    1.7742 H   0  0  0  0  0  0  0  0  0  0  0  0
   -0.4812    2.3007   -2.6929 H   0  0  0  0  0  0  0  0  0  0  0  0
    0.2583    1.5817   -1.2954 H   0  0  0  0  0  0  0  0  0  0  0  0
   -8.6284   -3.9300    0.1758 H   0  0  0  0  0  0  0  0  0  0  0  0
    4.8689    1.5465    1.1452 H   0  0  0  0  0  0  0  0  0  0  0  0
    6.8099    1.1670    0.8357 H   0  0  0  0  0  0  0  0  0  0  0  0
    9.1611    1.2491    0.7527 H   0  0  0  0  0  0  0  0  0  0  0  0
    7.0121   -2.1098   -0.9466 H   0  0  0  0  0  0  0  0  0  0  0  0
   11.2487   -2.0176   -1.1198 H   0  0  0  0  0  0  0  0  0  0  0  0
    9.0934   -3.1206   -1.6011 H   0  0  0  0  0  0  0  0  0  0  0  0
   12.4488   -0.3734    0.2575 H   0  0  0  0  0  0  0  0  0  0  0  0
   11.5918    0.9296    1.0748 H   0  0  0  0  0  0  0  0  0  0  0  0
   11.9038    1.0406   -0.6741 H   0  0  0  0  0  0  0  0  0  0  0  0
  1 11  1  0  0  0  0
  1 20  1  0  0  0  0
  2 19  1  0  0  0  0
  2 53  1  0  0  0  0
  3 29  2  0  0  0  0
  4  5  1  0  0  0  0
  4 15  1  0  0  0  0
  4 16  1  0  0  0  0
  5 22  2  0  0  0  0
  6 18  2  0  0  0  0
  6 21  1  0  0  0  0
  7 18  1  0  0  0  0
  7 51  1  0  0  0  0
  7 52  1  0  0  0  0
  8 26  1  0  0  0  0
  8 29  1  0  0  0  0
  8 54  1  0  0  0  0
  9 29  1  0  0  0  0
  9 30  1  0  0  0  0
  9 55  1  0  0  0  0
 10 11  2  0  0  0  0
 10 13  1  0  0  0  0
 10 18  1  0  0  0  0
 11 12  1  0  0  0  0
 12 14  1  0  0  0  0
 12 21  2  0  0  0  0
 13 17  1  0  0  0  0
 13 20  2  0  0  0  0
 14 16  2  0  0  0  0
 14 22  1  0  0  0  0
 15 19  1  0  0  0  0
 15 37  1  0  0  0  0
 15 38  1  0  0  0  0
 16 39  1  0  0  0  0
 17 23  2  0  0  0  0
 17 24  1  0  0  0  0
 19 25  1  0  0  0  0
 19 40  1  0  0  0  0
 20 41  1  0  0  0  0
 21 42  1  0  0  0  0
 22 43  1  0  0  0  0
 23 27  1  0  0  0  0
 23 44  1  0  0  0  0
 24 28  2  0  0  0  0
 24 45  1  0  0  0  0
 25 46  1  0  0  0  0
 25 47  1  0  0  0  0
 25 48  1  0  0  0  0
 26 27  2  0  0  0  0
 26 28  1  0  0  0  0
 27 49  1  0  0  0  0
 28 50  1  0  0  0  0
 30 31  1  0  0  0  0
 30 33  2  0  0  0  0
 31 32  2  0  0  0  0
 31 56  1  0  0  0  0
 32 34  1  0  0  0  0
 32 36  1  0  0  0  0
 33 35  1  0  0  0  0
 33 57  1  0  0  0  0
 34 35  2  0  0  0  0
 34 58  1  0  0  0  0
 35 59  1  0  0  0  0
 36 60  1  0  0  0  0
 36 61  1  0  0  0  0
 36 62  1  0  0  0  0
M  END
> <PUBCHEM_COMPOUND_CID>
49830367

> <PUBCHEM_CONFORMER_RMSD>
1

> <PUBCHEM_CONFORMER_DIVERSEORDER>
1
73
46
58
77
32
36
47
49
44
69
31
27
78
57
18
82
23
71
65
3
43
16
79
62
33
60
80
15
54
67
40
68
59
20
30
12
29
75
55
81
74
10
25
45
70
21
83
13
76
50
41
63
61
37
5
4
35
14
66
64
11
34
52
56
72
38
22
24
42
7
19
17
53
39
6
26
51
8
48
9
28
2

> <PUBCHEM_MMFF94_PARTIAL_CHARGES>
51
1 -0.08
11 0.04
12 0.05
13 -0.05
14 -0.05
15 0.26
16 -0.3
17 0.05
18 0.41
19 0.28
2 -0.68
20 -0.11
21 0.16
22 0.14
23 -0.15
24 -0.15
26 0.12
27 -0.15
28 -0.15
29 0.69
3 -0.57
30 0.12
31 -0.15
32 -0.14
33 -0.15
34 -0.15
35 -0.15
36 0.14
39 0.15
4 0.31
41 0.15
42 0.15
43 0.15
44 0.15
45 0.15
49 0.15
5 -0.71
50 0.15
51 0.4
52 0.4
53 0.4
54 0.37
55 0.37
56 0.15
57 0.15
58 0.15
59 0.15
6 -0.62
7 -0.9
8 -0.55
9 -0.55

> <PUBCHEM_EFFECTIVE_ROTOR_COUNT>
8

> <PUBCHEM_PHARMACOPHORE_FEATURES>
13
1 2 acceptor
1 2 donor
1 3 acceptor
1 5 acceptor
1 7 donor
1 8 donor
1 9 donor
3 6 7 18 cation
5 1 10 11 13 20 rings
5 4 5 14 16 22 rings
6 17 23 24 26 27 28 rings
6 30 31 32 33 34 35 rings
6 6 10 11 12 18 21 rings

> <PUBCHEM_HEAVY_ATOM_COUNT>
36

> <PUBCHEM_ATOM_DEF_STEREO_COUNT>
0

> <PUBCHEM_ATOM_UDEF_STEREO_COUNT>
1

> <PUBCHEM_BOND_DEF_STEREO_COUNT>
0

> <PUBCHEM_BOND_UDEF_STEREO_COUNT>
0

> <PUBCHEM_ISOTOPIC_ATOM_COUNT>
0

> <PUBCHEM_COMPONENT_COUNT>
1

> <PUBCHEM_CACTVS_TAUTO_COUNT>
6

> <PUBCHEM_CONFORMER_ID>
02F859DF00000001

> <PUBCHEM_MMFF94_ENERGY>
104.629

> <PUBCHEM_FEATURE_SELFOVERLAP>
66.087

> <PUBCHEM_SHAPE_FINGERPRINT>
10 15 9583513210328071912
10076449 9 18333732398862773992
10299344 5 16200428049674464804
10429389 143 11530476727894509951
10674148 151 11815894561291224239
11135926 11 15625933197474486100
11315181 36 14634876323326479401
11408170 108 15984833584801729766
11456790 92 12247676106372000371
11476731 38 17918273165661307320
12013929 2 18342451527410857045
12082328 90 18201438022243805876
12144603 126 16630524038744555552
12522641 33 13984662543314371544
12559415 141 18130799966194935774
12664476 115 16877941642557932020
12758862 11 17967256425152041096
13553643 46 11383826052857247354
14118638 360 17313662638673559256
14202775 3 18130794438861864062
14251764 46 7925909279606834176
14344974 52 18040715905279020220
14395042 24 12895078435341849995
15065858 18 18343016658832761116
15247644 1 18413389838757912399
15461852 350 18113336405592625119
15510794 2 18341614828435755498
15538507 75 12607413153244109604
1577012 14 16226321495962004740
16067689 302 17917434190280433326
16728433 110 18131347536149336584
1754911 235 14707209924304087059
1818759 1 17418093205118200902
19315958 150 13254797932824761212
20105231 36 18202281424845082047
21792934 111 8070025567948964582
21792961 116 18187931630261553384
232437 2 18060701684897131954
24771293 8 15068622630574975230
249057 3 17313110761172031464
306946 40 8286204937767146395
335352 9 16805040731205922929
4017518 198 18407759240650977491
4149490 64 17632010961333279930
45377200 153 18337670914492339795
4760202 170 13479140120545122422
4874694 18 17095525085616857034
5028188 123 18260828186026178037
54039377 194 17775283863378231977
57676310 188 18260825982550427771
636775 8 18187365454988399179
6691757 9 16588036683915799345
67123 10 18131070425043507864
9663363 56 17458065950826252901
9937071 3 17346602963085295254

> <PUBCHEM_SHAPE_MULTIPOLES>
703.09
41.43
2.07
1.48
46.85
1.23
0.19
28.32
5.65
-3.26
0.48
-1.35
-0.64
2.15

> <PUBCHEM_SHAPE_SELFOVERLAP>
1537.401

> <PUBCHEM_SHAPE_VOLUME>
385

> <PUBCHEM_COORDINATE_TYPE>
2
5
10

$$$$
49830360
  -OEChem-05102415023D

 58 62  0     0  0  0  0  0  0999 V2000
   -3.6819   -0.4210    1.7562 S   0  0  0  0  0  0  0  0  0  0  0  0
   11.2577    0.4308    0.1088 F   0  0  0  0  0  0  0  0  0  0  0  0
    4.8889   -1.2435   -0.3874 O   0  0  0  0  0  0  0  0  0  0  0  0
   -8.1121   -0.3512   -0.2176 N   0  0  0  0  0  0  0  0  0  0  0  0
   -3.1921    1.7523   -2.1296 N   0  0  0  0  0  0  0  0  0  0  0  0
   -8.0835    0.3421    0.9334 N   0  0  0  0  0  0  0  0  0  0  0  0
   -0.8522    1.7323   -1.7957 N   0  0  0  0  0  0  0  0  0  0  0  0
    4.2172    0.7078    0.7222 N   0  0  0  0  0  0  0  0  0  0  0  0
    6.4644    0.3145    0.3604 N   0  0  0  0  0  0  0  0  0  0  0  0
   -2.3383    0.7164   -0.1373 C   0  0  0  0  0  0  0  0  0  0  0  0
   -3.6471    0.4119    0.2475 C   0  0  0  0  0  0  0  0  0  0  0  0
   -4.7412    0.7722   -0.5480 C   0  0  0  0  0  0  0  0  0  0  0  0
   -1.3903    0.2494    0.8335 C   0  0  0  0  0  0  0  0  0  0  0  0
   -6.0878    0.4682   -0.1708 C   0  0  0  0  0  0  0  0  0  0  0  0
    0.0471    0.3663    0.8055 C   0  0  0  0  0  0  0  0  0  0  0  0
   -2.1464    1.3972   -1.3500 C   0  0  0  0  0  0  0  0  0  0  0  0
   -9.3146   -1.0497   -0.6038 C   0  0  0  0  0  0  0  0  0  0  0  0
   -6.9416   -0.3076   -0.9165 C   0  0  0  0  0  0  0  0  0  0  0  0
   -1.9839   -0.3805    1.9015 C   0  0  0  0  0  0  0  0  0  0  0  0
   -4.4375    1.4396   -1.7215 C   0  0  0  0  0  0  0  0  0  0  0  0
   -6.8445    0.8404    0.9564 C   0  0  0  0  0  0  0  0  0  0  0  0
   -9.4860   -2.3535    0.1765 C   0  0  0  0  0  0  0  0  0  0  0  0
    0.8170   -0.6333    0.2105 C   0  0  0  0  0  0  0  0  0  0  0  0
    0.6673    1.4796    1.3727 C   0  0  0  0  0  0  0  0  0  0  0  0
    2.8270    0.5934    0.7505 C   0  0  0  0  0  0  0  0  0  0  0  0
    2.2069   -0.5199    0.1830 C   0  0  0  0  0  0  0  0  0  0  0  0
    2.0573    1.5931    1.3452 C   0  0  0  0  0  0  0  0  0  0  0  0
  -10.7316   -3.1053   -0.2649 C   0  0  0  0  0  0  0  0  0  0  0  0
    5.1667   -0.1872    0.1713 C   0  0  0  0  0  0  0  0  0  0  0  0
    7.6904   -0.2688   -0.0382 C   0  0  0  0  0  0  0  0  0  0  0  0
    8.8933    0.3813    0.2374 C   0  0  0  0  0  0  0  0  0  0  0  0
    7.6962   -1.4927   -0.7075 C   0  0  0  0  0  0  0  0  0  0  0  0
   10.1021   -0.1925   -0.1565 C   0  0  0  0  0  0  0  0  0  0  0  0
    8.9050   -2.0662   -1.1013 C   0  0  0  0  0  0  0  0  0  0  0  0
   10.1080   -1.4161   -0.8259 C   0  0  0  0  0  0  0  0  0  0  0  0
   -9.2595   -1.2469   -1.6805 H   0  0  0  0  0  0  0  0  0  0  0  0
  -10.1597   -0.3730   -0.4321 H   0  0  0  0  0  0  0  0  0  0  0  0
   -6.8202   -0.8225   -1.8606 H   0  0  0  0  0  0  0  0  0  0  0  0
   -1.5093   -0.8233    2.7672 H   0  0  0  0  0  0  0  0  0  0  0  0
   -5.2197    1.7634   -2.4035 H   0  0  0  0  0  0  0  0  0  0  0  0
   -6.5515    1.4571    1.7946 H   0  0  0  0  0  0  0  0  0  0  0  0
   -9.5522   -2.1450    1.2512 H   0  0  0  0  0  0  0  0  0  0  0  0
   -8.6075   -2.9942    0.0329 H   0  0  0  0  0  0  0  0  0  0  0  0
    0.3477   -1.5064   -0.2371 H   0  0  0  0  0  0  0  0  0  0  0  0
    0.0818    2.2684    1.8390 H   0  0  0  0  0  0  0  0  0  0  0  0
    2.7310   -1.3346   -0.2957 H   0  0  0  0  0  0  0  0  0  0  0  0
    2.5272    2.4664    1.7906 H   0  0  0  0  0  0  0  0  0  0  0  0
  -10.8363   -4.0335    0.3054 H   0  0  0  0  0  0  0  0  0  0  0  0
  -11.6309   -2.5028   -0.1023 H   0  0  0  0  0  0  0  0  0  0  0  0
  -10.6777   -3.3634   -1.3274 H   0  0  0  0  0  0  0  0  0  0  0  0
   -0.0158    1.5092   -1.2841 H   0  0  0  0  0  0  0  0  0  0  0  0
   -0.7693    2.2226   -2.6770 H   0  0  0  0  0  0  0  0  0  0  0  0
    4.5954    1.5466    1.1553 H   0  0  0  0  0  0  0  0  0  0  0  0
    6.5432    1.2064    0.8423 H   0  0  0  0  0  0  0  0  0  0  0  0
    8.9032    1.3353    0.7581 H   0  0  0  0  0  0  0  0  0  0  0  0
    6.8094   -2.0572   -0.9573 H   0  0  0  0  0  0  0  0  0  0  0  0
    8.9112   -3.0192   -1.6226 H   0  0  0  0  0  0  0  0  0  0  0  0
   11.0494   -1.8626   -1.1323 H   0  0  0  0  0  0  0  0  0  0  0  0
  1 11  1  0  0  0  0
  1 19  1  0  0  0  0
  2 33  1  0  0  0  0
  3 29  2  0  0  0  0
  4  6  1  0  0  0  0
  4 17  1  0  0  0  0
  4 18  1  0  0  0  0
  5 16  2  0  0  0  0
  5 20  1  0  0  0  0
  6 21  2  0  0  0  0
  7 16  1  0  0  0  0
  7 51  1  0  0  0  0
  7 52  1  0  0  0  0
  8 25  1  0  0  0  0
  8 29  1  0  0  0  0
  8 53  1  0  0  0  0
  9 29  1  0  0  0  0
  9 30  1  0  0  0  0
  9 54  1  0  0  0  0
 10 11  2  0  0  0  0
 10 13  1  0  0  0  0
 10 16  1  0  0  0  0
 11 12  1  0  0  0  0
 12 14  1  0  0  0  0
 12 20  2  0  0  0  0
 13 15  1  0  0  0  0
 13 19  2  0  0  0  0
 14 18  2  0  0  0  0
 14 21  1  0  0  0  0
 15 23  2  0  0  0  0
 15 24  1  0  0  0  0
 17 22  1  0  0  0  0
 17 36  1  0  0  0  0
 17 37  1  0  0  0  0
 18 38  1  0  0  0  0
 19 39  1  0  0  0  0
 20 40  1  0  0  0  0
 21 41  1  0  0  0  0
 22 28  1  0  0  0  0
 22 42  1  0  0  0  0
 22 43  1  0  0  0  0
 23 26  1  0  0  0  0
 23 44  1  0  0  0  0
 24 27  2  0  0  0  0
 24 45  1  0  0  0  0
 25 26  2  0  0  0  0
 25 27  1  0  0  0  0
 26 46  1  0  0  0  0
 27 47  1  0  0  0  0
 28 48  1  0  0  0  0
 28 49  1  0  0  0  0
 28 50  1  0  0  0  0
 30 31  2  0  0  0  0
 30 32  1  0  0  0  0
 31 33  1  0  0  0  0
 31 55  1  0  0  0  0
 32 34  2  0  0  0  0
 32 56  1  0  0  0  0
 33 35  2  0  0  0  0
 34 35  1  0  0  0  0
 34 57  1  0  0  0  0
 35 58  1  0  0  0  0
M  END
> <PUBCHEM_COMPOUND_CID>
49830360

> <PUBCHEM_CONFORMER_RMSD>
1

> <PUBCHEM_CONFORMER_DIVERSEORDER>
1
50
27
38
56
60
54
30
52
13
68
55
70
18
61
59
28
6
21
39
48
7
8
17
69
23
42
40
67
41
16
20
47
64
65
36
15
57
62
53
43
5
33
14
29
34
22
35
44
19
46
9
49
66
11
45
32
37
31
25
10
58
4
12
63
24
51
26
3
2

> <PUBCHEM_MMFF94_PARTIAL_CHARGES>
48
1 -0.08
11 0.04
12 0.05
13 -0.05
14 -0.05
15 0.05
16 0.41
17 0.26
18 -0.3
19 -0.11
2 -0.19
20 0.16
21 0.14
23 -0.15
24 -0.15
25 0.12
26 -0.15
27 -0.15
29 0.69
3 -0.57
30 0.12
31 -0.15
32 -0.15
33 0.19
34 -0.15
35 -0.15
38 0.15
39 0.15
4 0.31
40 0.15
41 0.15
44 0.15
45 0.15
46 0.15
47 0.15
5 -0.62
51 0.4
52 0.4
53 0.37
54 0.37
55 0.15
56 0.15
57 0.15
58 0.15
6 -0.71
7 -0.9
8 -0.55
9 -0.55

> <PUBCHEM_EFFECTIVE_ROTOR_COUNT>
8

> <PUBCHEM_PHARMACOPHORE_FEATURES>
12
1 28 hydrophobe
1 3 acceptor
1 6 acceptor
1 7 donor
1 8 donor
1 9 donor
3 5 7 16 cation
5 1 10 11 13 19 rings
5 4 6 14 18 21 rings
6 15 23 24 25 26 27 rings
6 30 31 32 33 34 35 rings
6 5 10 11 12 16 20 rings

> <PUBCHEM_HEAVY_ATOM_COUNT>
35

> <PUBCHEM_ATOM_DEF_STEREO_COUNT>
0

> <PUBCHEM_ATOM_UDEF_STEREO_COUNT>
0

> <PUBCHEM_BOND_DEF_STEREO_COUNT>
0

> <PUBCHEM_BOND_UDEF_STEREO_COUNT>
0

> <PUBCHEM_ISOTOPIC_ATOM_COUNT>
0

> <PUBCHEM_COMPONENT_COUNT>
1

> <PUBCHEM_CACTVS_TAUTO_COUNT>
6

> <PUBCHEM_CONFORMER_ID>
02F859D800000001

> <PUBCHEM_MMFF94_ENERGY>
96.971

> <PUBCHEM_FEATURE_SELFOVERLAP>
61.011

> <PUBCHEM_SHAPE_FINGERPRINT>
10 15 9655571903798460864
10076449 9 18333732403231548825
10299344 5 16200429153391350108
10429389 143 11602814697555893239
10674148 151 12175620681165729391
11135926 11 15554158182087975564
11315181 36 14634875228199424745
11408170 108 16128104347900039366
11456790 92 12319453325076792275
11463208 3 18271525412369151079
11476731 38 17846498150353944112
12082328 90 18201438026385746884
12144603 126 16558747928194158144
12236239 1 16630519657424285065
12522641 33 14201397175806547928
12559415 141 17489317395086498294
12664476 115 16950280715772579380
12758862 11 17967537904302354280
14118638 360 17385719137394560960
14202775 3 18201725054365398719
14251764 46 10881403136196027328
14344974 52 17968376840448527156
15065858 18 18272086064091971252
15183329 4 16805611331382406180
15419008 47 18259982657480011316
15461852 350 17967251992223168327
15510794 2 18413110571947552322
15538507 75 12463297965083831724
1577012 14 16226602975223074764
16728433 110 18131347540349332368
1754911 235 14707208824961309795
1818759 1 17346881139785345054
19315958 150 13110965323437233052
20105231 36 18201999949921157895
21267235 1 17846495928542387145
21362267 2 13984949592895356206
21792934 111 8070026667402596118
21792961 116 18187931634466771944
232437 2 17917712400901825130
24771293 8 15068621535131591351
249057 3 17313392240332861672
306946 40 8502379919109972595
335352 9 16805321111139955457
4017518 198 18333452050038485699
4149490 64 17489020577794735771
4516262 110 13551189987809621240
45377200 153 18337389448269139547
4760202 170 13551478089926826966
4874694 18 17240202128392602426
5028188 123 18261109665403247101
54039377 194 17775565342813394769
57676310 188 18334290955856605403
636775 8 17676210204559699051
6691757 9 16443640020995088617
67123 10 18131633379170512216
9663363 56 17458064855693897477

> <PUBCHEM_SHAPE_MULTIPOLES>
681.1
39.54
1.94
1.5
40
1.17
0.22
27.14
6.04
-2.8
0.38
-1.6
-0.6
2.01

> <PUBCHEM_SHAPE_SELFOVERLAP>
1494.251

> <PUBCHEM_SHAPE_VOLUME>
374

> <PUBCHEM_COORDINATE_TYPE>
2
5
10

$$$$
18450918
  -OEChem-05102415023D

 58 61  0     0  0  0  0  0  0999 V2000
   -3.5967    0.8724    0.9840 S   0  0  0  0  0  0  0  0  0  0  0  0
   -9.8996    1.9788   -0.2206 S   0  0  0  0  0  0  0  0  0  0  0  0
    5.0555    0.8816   -0.9730 O   0  0  0  0  0  0  0  0  0  0  0  0
  -10.1700    2.9796   -1.2341 O   0  0  0  0  0  0  0  0  0  0  0  0
   -9.6241    2.3661    1.1496 O   0  0  0  0  0  0  0  0  0  0  0  0
   -2.8226   -3.0250   -1.0829 N   0  0  0  0  0  0  0  0  0  0  0  0
    4.3773   -0.1971    0.9932 N   0  0  0  0  0  0  0  0  0  0  0  0
   -0.5074   -2.7002   -0.7339 N   0  0  0  0  0  0  0  0  0  0  0  0
    6.6295    0.0642    0.5512 N   0  0  0  0  0  0  0  0  0  0  0  0
   -8.6526    0.9416   -0.7478 N   0  0  0  0  0  0  0  0  0  0  0  0
   -1.2377   -0.0635    0.6500 C   0  0  0  0  0  0  0  0  0  0  0  0
   -2.1146   -1.0320    0.0566 C   0  0  0  0  0  0  0  0  0  0  0  0
    0.2015   -0.0985    0.7386 C   0  0  0  0  0  0  0  0  0  0  0  0
   -3.4514   -0.6401    0.1703 C   0  0  0  0  0  0  0  0  0  0  0  0
   -1.9094    1.0099    1.1848 C   0  0  0  0  0  0  0  0  0  0  0  0
   -1.8341   -2.2485   -0.5856 C   0  0  0  0  0  0  0  0  0  0  0  0
   -4.4873   -1.4323   -0.3390 C   0  0  0  0  0  0  0  0  0  0  0  0
    0.9755    0.4624   -0.2771 C   0  0  0  0  0  0  0  0  0  0  0  0
    0.8193   -0.6921    1.8394 C   0  0  0  0  0  0  0  0  0  0  0  0
    2.9852   -0.1634    0.9086 C   0  0  0  0  0  0  0  0  0  0  0  0
    2.3673    0.4301   -0.1921 C   0  0  0  0  0  0  0  0  0  0  0  0
    2.2112   -0.7246    1.9244 C   0  0  0  0  0  0  0  0  0  0  0  0
   -4.0976   -2.6101   -0.9520 C   0  0  0  0  0  0  0  0  0  0  0  0
   -5.8523   -1.0443   -0.2260 C   0  0  0  0  0  0  0  0  0  0  0  0
    5.3310    0.3110    0.0775 C   0  0  0  0  0  0  0  0  0  0  0  0
    7.8591    0.4079   -0.0586 C   0  0  0  0  0  0  0  0  0  0  0  0
   10.2748    0.4192   -0.0374 C   0  0  0  0  0  0  0  0  0  0  0  0
    9.0631    0.0790    0.5639 C   0  0  0  0  0  0  0  0  0  0  0  0
    7.8667    1.0770   -1.2825 C   0  0  0  0  0  0  0  0  0  0  0  0
   -8.4072   -0.3174   -0.0147 C   0  0  0  0  0  0  0  0  0  0  0  0
   10.2826    1.0884   -1.2613 C   0  0  0  0  0  0  0  0  0  0  0  0
   -7.0039   -0.7158   -0.1315 C   0  0  0  0  0  0  0  0  0  0  0  0
    9.0785    1.4173   -1.8838 C   0  0  0  0  0  0  0  0  0  0  0  0
   11.5625    0.0694    0.6289 C   0  0  0  0  0  0  0  0  0  0  0  0
  -11.2726    0.8492   -0.1871 C   0  0  0  0  0  0  0  0  0  0  0  0
   -1.4982    1.8755    1.6873 H   0  0  0  0  0  0  0  0  0  0  0  0
    0.5084    0.9276   -1.1422 H   0  0  0  0  0  0  0  0  0  0  0  0
    0.2305   -1.1350    2.6392 H   0  0  0  0  0  0  0  0  0  0  0  0
    2.8946    0.8848   -1.0185 H   0  0  0  0  0  0  0  0  0  0  0  0
    2.6793   -1.1910    2.7875 H   0  0  0  0  0  0  0  0  0  0  0  0
   -4.8326   -3.2891   -1.3763 H   0  0  0  0  0  0  0  0  0  0  0  0
    4.7538   -0.6468    1.8241 H   0  0  0  0  0  0  0  0  0  0  0  0
    0.2914   -2.1904   -0.3977 H   0  0  0  0  0  0  0  0  0  0  0  0
   -0.3600   -3.5834   -1.2053 H   0  0  0  0  0  0  0  0  0  0  0  0
    6.7059   -0.4212    1.4415 H   0  0  0  0  0  0  0  0  0  0  0  0
    9.0585   -0.4408    1.5194 H   0  0  0  0  0  0  0  0  0  0  0  0
    6.9797    1.3668   -1.8271 H   0  0  0  0  0  0  0  0  0  0  0  0
   -9.0522   -1.0985   -0.4300 H   0  0  0  0  0  0  0  0  0  0  0  0
   -8.6539   -0.1931    1.0447 H   0  0  0  0  0  0  0  0  0  0  0  0
   11.2199    1.3610   -1.7389 H   0  0  0  0  0  0  0  0  0  0  0  0
    9.0858    1.9390   -2.8365 H   0  0  0  0  0  0  0  0  0  0  0  0
   -8.5398    0.8490   -1.7662 H   0  0  0  0  0  0  0  0  0  0  0  0
   11.8590    0.8682    1.3159 H   0  0  0  0  0  0  0  0  0  0  0  0
   11.4730   -0.8651    1.1933 H   0  0  0  0  0  0  0  0  0  0  0  0
   12.3623   -0.0758   -0.1053 H   0  0  0  0  0  0  0  0  0  0  0  0
  -12.1675    1.4217    0.0682 H   0  0  0  0  0  0  0  0  0  0  0  0
  -11.3928    0.4070   -1.1779 H   0  0  0  0  0  0  0  0  0  0  0  0
  -11.1047    0.0838    0.5716 H   0  0  0  0  0  0  0  0  0  0  0  0
  1 14  1  0  0  0  0
  1 15  1  0  0  0  0
  2  4  2  0  0  0  0
  2  5  2  0  0  0  0
  2 10  1  0  0  0  0
  2 35  1  0  0  0  0
  3 25  2  0  0  0  0
  6 16  2  0  0  0  0
  6 23  1  0  0  0  0
  7 20  1  0  0  0  0
  7 25  1  0  0  0  0
  7 42  1  0  0  0  0
  8 16  1  0  0  0  0
  8 43  1  0  0  0  0
  8 44  1  0  0  0  0
  9 25  1  0  0  0  0
  9 26  1  0  0  0  0
  9 45  1  0  0  0  0
 10 30  1  0  0  0  0
 10 52  1  0  0  0  0
 11 12  1  0  0  0  0
 11 13  1  0  0  0  0
 11 15  2  0  0  0  0
 12 14  2  0  0  0  0
 12 16  1  0  0  0  0
 13 18  2  0  0  0  0
 13 19  1  0  0  0  0
 14 17  1  0  0  0  0
 15 36  1  0  0  0  0
 17 23  2  0  0  0  0
 17 24  1  0  0  0  0
 18 21  1  0  0  0  0
 18 37  1  0  0  0  0
 19 22  2  0  0  0  0
 19 38  1  0  0  0  0
 20 21  2  0  0  0  0
 20 22  1  0  0  0  0
 21 39  1  0  0  0  0
 22 40  1  0  0  0  0
 23 41  1  0  0  0  0
 24 32  3  0  0  0  0
 26 28  1  0  0  0  0
 26 29  2  0  0  0  0
 27 28  2  0  0  0  0
 27 31  1  0  0  0  0
 27 34  1  0  0  0  0
 28 46  1  0  0  0  0
 29 33  1  0  0  0  0
 29 47  1  0  0  0  0
 30 32  1  0  0  0  0
 30 48  1  0  0  0  0
 30 49  1  0  0  0  0
 31 33  2  0  0  0  0
 31 50  1  0  0  0  0
 33 51  1  0  0  0  0
 34 53  1  0  0  0  0
 34 54  1  0  0  0  0
 34 55  1  0  0  0  0
 35 56  1  0  0  0  0
 35 57  1  0  0  0  0
 35 58  1  0  0  0  0
M  END
> <PUBCHEM_COMPOUND_CID>
18450918

> <PUBCHEM_CONFORMER_RMSD>
1

> <PUBCHEM_CONFORMER_DIVERSEORDER>
1
34
8
52
25
18
11
29
30
43
38
28
16
12
37
17
60
27
61
13
51
50
53
56
21
6
33
57
41
58
64
44
31
20
19
40
32
62
15
63
9
49
39
26
22
48
23
46
42
36
10
14
4
7
59
55
35
47
24
5
45
54
3
2

> <PUBCHEM_MMFF94_PARTIAL_CHARGES>
49
1 -0.08
10 -0.91
11 -0.05
13 0.05
14 0.04
15 -0.11
16 0.41
17 0.07
18 -0.15
19 -0.15
2 1.33
20 0.12
21 -0.15
22 -0.15
23 0.16
24 -0.07
25 0.69
26 0.12
27 -0.14
28 -0.15
29 -0.15
3 -0.57
30 0.56
31 -0.15
32 -0.2
33 -0.15
34 0.14
35 0.11
36 0.15
37 0.15
38 0.15
39 0.15
4 -0.65
40 0.15
41 0.15
42 0.37
43 0.4
44 0.4
45 0.37
46 0.15
47 0.15
5 -0.65
50 0.15
51 0.15
52 0.42
6 -0.62
7 -0.55
8 -0.9
9 -0.55

> <PUBCHEM_EFFECTIVE_ROTOR_COUNT>
7

> <PUBCHEM_PHARMACOPHORE_FEATURES>
12
1 10 donor
1 3 acceptor
1 4 acceptor
1 5 acceptor
1 7 donor
1 8 donor
1 9 donor
3 6 8 16 cation
5 1 11 12 14 15 rings
6 13 18 19 20 21 22 rings
6 26 27 28 29 31 33 rings
6 6 12 14 16 17 23 rings

> <PUBCHEM_HEAVY_ATOM_COUNT>
35

> <PUBCHEM_ATOM_DEF_STEREO_COUNT>
0

> <PUBCHEM_ATOM_UDEF_STEREO_COUNT>
0

> <PUBCHEM_BOND_DEF_STEREO_COUNT>
0

> <PUBCHEM_BOND_UDEF_STEREO_COUNT>
0

> <PUBCHEM_ISOTOPIC_ATOM_COUNT>
0

> <PUBCHEM_COMPONENT_COUNT>
1

> <PUBCHEM_CACTVS_TAUTO_COUNT>
6

> <PUBCHEM_CONFORMER_ID>
011989E600000001

> <PUBCHEM_MMFF94_ENERGY>
94.5075

> <PUBCHEM_FEATURE_SELFOVERLAP>
61.028

> <PUBCHEM_SHAPE_FINGERPRINT>
10 15 13118272699326821010
10190206 1 17775291517912099281
10674148 151 18273213131708036866
11410812 94 13326585030212628203
11828042 53 17914903028350586441
12013929 94 10159695807242622053
12089408 11 18186798097375068074
12144603 126 18186800279160159299
12522641 33 18410015429857682082
12758862 11 17560797779219666082
12838862 33 16917347044028184646
13740195 50 11602543130620121005
14040221 8 18343868814309160344
14251764 46 18411136952786038098
14918687 75 11024103244422975904
15061470 23 18335700564291320352
15065858 18 17346597508893417654
15183329 4 17821723980089639514
15247644 1 13830132797489228509
15510794 2 16702030777773056598
16087824 20 18412824656333606905
20156587 128 18411983521268821530
20501277 279 14490190514654026873
20609170 92 18200879470542091839
20721686 146 18188765034764735029
21102433 48 11600006535430511900
21360443 120 18335138700617030826
21360443 89 7853565804504557905
21792961 116 16630533920968126330
21895431 317 12031518665876058900
23399689 5 18335421249857467165
23559900 14 17630598131698940187
249057 3 18201158853795979760
2835820 33 8214141858601917660
3092352 35 17894630383897834755
335352 9 18202278118147271967
3986486 107 16845574189337031401
3991529 128 18335145281039022097
4017518 198 17132115754067323383
4353968 344 13470693621070549987
58083652 198 15267063700981071290
58902169 19 18188209935895323710
59521270 166 18412542102934418143
59682541 35 13190337976481135455
6698420 124 17458911547364455536
9663363 56 16559030498503249098

> <PUBCHEM_SHAPE_MULTIPOLES>
685.47
43.43
2.24
1.38
19.25
0.55
-0.12
-29.61
10.65
-6.52
0.93
1.37
-0.11
-2.01

> <PUBCHEM_SHAPE_SELFOVERLAP>
1461.941

> <PUBCHEM_SHAPE_VOLUME>
381.9

> <PUBCHEM_COORDINATE_TYPE>
2
5
10

$$$$
11306240
  -OEChem-05102415033D

 64 67  0     0  0  0  0  0  0999 V2000
   -3.6679   -0.8521   -1.2216 S   0  0  0  0  0  0  0  0  0  0  0  0
    4.9427   -0.9362    0.8930 O   0  0  0  0  0  0  0  0  0  0  0  0
   -8.7697   -1.1659    0.3836 N   0  0  0  0  0  0  0  0  0  0  0  0
   -2.9993    2.8087    1.2709 N   0  0  0  0  0  0  0  0  0  0  0  0
   -0.6729    2.5592    0.9350 N   0  0  0  0  0  0  0  0  0  0  0  0
    4.2787    0.3374   -0.9580 N   0  0  0  0  0  0  0  0  0  0  0  0
    6.5273    0.0661   -0.5045 N   0  0  0  0  0  0  0  0  0  0  0  0
   -2.2363    0.9626   -0.0637 C   0  0  0  0  0  0  0  0  0  0  0  0
   -1.3320    0.0780   -0.7410 C   0  0  0  0  0  0  0  0  0  0  0  0
   -3.5638    0.5650   -0.2459 C   0  0  0  0  0  0  0  0  0  0  0  0
    0.1077    0.1444   -0.7965 C   0  0  0  0  0  0  0  0  0  0  0  0
  -10.1791   -1.5377    0.2442 C   0  0  0  0  0  0  0  0  0  0  0  0
   -7.9145   -2.1758   -0.2432 C   0  0  0  0  0  0  0  0  0  0  0  0
   -1.9751   -0.9412   -1.4024 C   0  0  0  0  0  0  0  0  0  0  0  0
   -4.6223    1.2811    0.3255 C   0  0  0  0  0  0  0  0  0  0  0  0
   -1.9886    2.1061    0.7121 C   0  0  0  0  0  0  0  0  0  0  0  0
   -8.5249    0.1476   -0.1985 C   0  0  0  0  0  0  0  0  0  0  0  0
    0.8676   -0.5112    0.1678 C   0  0  0  0  0  0  0  0  0  0  0  0
    0.7275    0.8636   -1.8141 C   0  0  0  0  0  0  0  0  0  0  0  0
    2.8862    0.2727   -0.9038 C   0  0  0  0  0  0  0  0  0  0  0  0
   -4.2644    2.3911    1.0702 C   0  0  0  0  0  0  0  0  0  0  0  0
    2.2600   -0.4467    0.1139 C   0  0  0  0  0  0  0  0  0  0  0  0
    2.1199    0.9278   -1.8679 C   0  0  0  0  0  0  0  0  0  0  0  0
  -11.0826   -0.5377    0.9456 C   0  0  0  0  0  0  0  0  0  0  0  0
   -8.1599   -3.5506    0.3549 C   0  0  0  0  0  0  0  0  0  0  0  0
   -5.9781    0.8870    0.1437 C   0  0  0  0  0  0  0  0  0  0  0  0
   -7.1286    0.5510   -0.0097 C   0  0  0  0  0  0  0  0  0  0  0  0
    5.2256   -0.2512   -0.0846 C   0  0  0  0  0  0  0  0  0  0  0  0
    7.7524   -0.3217    0.0879 C   0  0  0  0  0  0  0  0  0  0  0  0
    8.9435    0.0978   -0.4810 C   0  0  0  0  0  0  0  0  0  0  0  0
   10.1510   -0.2851    0.1030 C   0  0  0  0  0  0  0  0  0  0  0  0
    7.7346   -1.1134    1.2243 C   0  0  0  0  0  0  0  0  0  0  0  0
   10.1502   -1.0822    1.2479 C   0  0  0  0  0  0  0  0  0  0  0  0
    8.9421   -1.4963    1.8085 C   0  0  0  0  0  0  0  0  0  0  0  0
   11.4430    0.1578   -0.4957 C   0  0  0  0  0  0  0  0  0  0  0  0
  -10.4764   -1.6336   -0.8077 H   0  0  0  0  0  0  0  0  0  0  0  0
  -10.3810   -2.4958    0.7333 H   0  0  0  0  0  0  0  0  0  0  0  0
   -8.0643   -2.2194   -1.3297 H   0  0  0  0  0  0  0  0  0  0  0  0
   -6.8566   -1.9519   -0.0684 H   0  0  0  0  0  0  0  0  0  0  0  0
   -1.5399   -1.7406   -1.9875 H   0  0  0  0  0  0  0  0  0  0  0  0
   -9.1261    0.9214    0.2899 H   0  0  0  0  0  0  0  0  0  0  0  0
   -8.7767    0.1669   -1.2666 H   0  0  0  0  0  0  0  0  0  0  0  0
    0.3932   -1.0746    0.9676 H   0  0  0  0  0  0  0  0  0  0  0  0
    0.1442    1.3807   -2.5721 H   0  0  0  0  0  0  0  0  0  0  0  0
   -5.0186    3.0086    1.5510 H   0  0  0  0  0  0  0  0  0  0  0  0
    2.7811   -0.9797    0.8962 H   0  0  0  0  0  0  0  0  0  0  0  0
    2.5945    1.4925   -2.6664 H   0  0  0  0  0  0  0  0  0  0  0  0
  -10.7328   -0.3145    1.9595 H   0  0  0  0  0  0  0  0  0  0  0  0
  -11.1832    0.3988    0.3888 H   0  0  0  0  0  0  0  0  0  0  0  0
  -12.0921   -0.9555    1.0344 H   0  0  0  0  0  0  0  0  0  0  0  0
   -8.1695   -3.5239    1.4499 H   0  0  0  0  0  0  0  0  0  0  0  0
   -9.0895   -4.0048   -0.0021 H   0  0  0  0  0  0  0  0  0  0  0  0
   -7.3516   -4.2276    0.0549 H   0  0  0  0  0  0  0  0  0  0  0  0
    4.6611    0.8802   -1.7284 H   0  0  0  0  0  0  0  0  0  0  0  0
   -0.5495    3.3884    1.5018 H   0  0  0  0  0  0  0  0  0  0  0  0
    0.1406    2.1020    0.5608 H   0  0  0  0  0  0  0  0  0  0  0  0
    6.6088    0.6460   -1.3359 H   0  0  0  0  0  0  0  0  0  0  0  0
    8.9425    0.7205   -1.3722 H   0  0  0  0  0  0  0  0  0  0  0  0
    6.8458   -1.4753    1.7187 H   0  0  0  0  0  0  0  0  0  0  0  0
   11.0841   -1.3856    1.7134 H   0  0  0  0  0  0  0  0  0  0  0  0
    8.9428   -2.1166    2.7002 H   0  0  0  0  0  0  0  0  0  0  0  0
   11.3612    0.2526   -1.5839 H   0  0  0  0  0  0  0  0  0  0  0  0
   11.7373    1.1264   -0.0796 H   0  0  0  0  0  0  0  0  0  0  0  0
   12.2407   -0.5659   -0.2968 H   0  0  0  0  0  0  0  0  0  0  0  0
  1 10  1  0  0  0  0
  1 14  1  0  0  0  0
  2 28  2  0  0  0  0
  3 12  1  0  0  0  0
  3 13  1  0  0  0  0
  3 17  1  0  0  0  0
  4 16  2  0  0  0  0
  4 21  1  0  0  0  0
  5 16  1  0  0  0  0
  5 55  1  0  0  0  0
  5 56  1  0  0  0  0
  6 20  1  0  0  0  0
  6 28  1  0  0  0  0
  6 54  1  0  0  0  0
  7 28  1  0  0  0  0
  7 29  1  0  0  0  0
  7 57  1  0  0  0  0
  8  9  1  0  0  0  0
  8 10  2  0  0  0  0
  8 16  1  0  0  0  0
  9 11  1  0  0  0  0
  9 14  2  0  0  0  0
 10 15  1  0  0  0  0
 11 18  2  0  0  0  0
 11 19  1  0  0  0  0
 12 24  1  0  0  0  0
 12 36  1  0  0  0  0
 12 37  1  0  0  0  0
 13 25  1  0  0  0  0
 13 38  1  0  0  0  0
 13 39  1  0  0  0  0
 14 40  1  0  0  0  0
 15 21  2  0  0  0  0
 15 26  1  0  0  0  0
 17 27  1  0  0  0  0
 17 41  1  0  0  0  0
 17 42  1  0  0  0  0
 18 22  1  0  0  0  0
 18 43  1  0  0  0  0
 19 23  2  0  0  0  0
 19 44  1  0  0  0  0
 20 22  2  0  0  0  0
 20 23  1  0  0  0  0
 21 45  1  0  0  0  0
 22 46  1  0  0  0  0
 23 47  1  0  0  0  0
 24 48  1  0  0  0  0
 24 49  1  0  0  0  0
 24 50  1  0  0  0  0
 25 51  1  0  0  0  0
 25 52  1  0  0  0  0
 25 53  1  0  0  0  0
 26 27  3  0  0  0  0
 29 30  1  0  0  0  0
 29 32  2  0  0  0  0
 30 31  2  0  0  0  0
 30 58  1  0  0  0  0
 31 33  1  0  0  0  0
 31 35  1  0  0  0  0
 32 34  1  0  0  0  0
 32 59  1  0  0  0  0
 33 34  2  0  0  0  0
 33 60  1  0  0  0  0
 34 61  1  0  0  0  0
 35 62  1  0  0  0  0
 35 63  1  0  0  0  0
 35 64  1  0  0  0  0
M  END
> <PUBCHEM_COMPOUND_CID>
11306240

> <PUBCHEM_CONFORMER_RMSD>
1

> <PUBCHEM_CONFORMER_DIVERSEORDER>
1
11
37
14
28
15
21
32
16
33
29
8
24
5
31
17
34
7
36
30
6
18
26
22
19
35
3
38
13
25
23
27
4
9
40
20
42
12
10
39
41
2

> <PUBCHEM_MMFF94_PARTIAL_CHARGES>
46
1 -0.08
10 0.04
11 0.05
12 0.27
13 0.27
14 -0.11
15 0.07
16 0.41
17 0.47
18 -0.15
19 -0.15
2 -0.57
20 0.12
21 0.16
22 -0.15
23 -0.15
26 -0.07
27 -0.2
28 0.69
29 0.12
3 -0.81
30 -0.15
31 -0.14
32 -0.15
33 -0.15
34 -0.15
35 0.14
4 -0.62
40 0.15
43 0.15
44 0.15
45 0.15
46 0.15
47 0.15
5 -0.9
54 0.37
55 0.4
56 0.4
57 0.37
58 0.15
59 0.15
6 -0.55
60 0.15
61 0.15
7 -0.55
9 -0.05

> <PUBCHEM_EFFECTIVE_ROTOR_COUNT>
8

> <PUBCHEM_PHARMACOPHORE_FEATURES>
10
1 2 acceptor
1 3 cation
1 5 donor
1 6 donor
1 7 donor
3 4 5 16 cation
5 1 8 9 10 14 rings
6 11 18 19 20 22 23 rings
6 29 30 31 32 33 34 rings
6 4 8 10 15 16 21 rings

> <PUBCHEM_HEAVY_ATOM_COUNT>
35

> <PUBCHEM_ATOM_DEF_STEREO_COUNT>
0

> <PUBCHEM_ATOM_UDEF_STEREO_COUNT>
0

> <PUBCHEM_BOND_DEF_STEREO_COUNT>
0

> <PUBCHEM_BOND_UDEF_STEREO_COUNT>
0

> <PUBCHEM_ISOTOPIC_ATOM_COUNT>
0

> <PUBCHEM_COMPONENT_COUNT>
1

> <PUBCHEM_CACTVS_TAUTO_COUNT>
6

> <PUBCHEM_CONFORMER_ID>
00AC850000000001

> <PUBCHEM_MMFF94_ENERGY>
99.9869

> <PUBCHEM_FEATURE_SELFOVERLAP>
50.86

> <PUBCHEM_SHAPE_FINGERPRINT>
10 15 17275099501838702628
10076449 9 17275102821231387001
10162869 55 17821730542335190702
10165383 225 15482670169696055277
10299344 5 18408319966137275910
10580692 12 18131351887425402142
11135609 99 18337391651470635399
12089408 11 18260830371948078292
12664476 115 15985100812559425466
13740195 50 18131067155734788187
14117953 113 12107790704962329355
14251764 46 17821449057982613757
14428016 248 12319735877572926674
14918687 75 18259983799608242350
15247644 1 16877944931828044378
15274700 256 18341331171267375418
15392192 104 18411981344021602622
15419008 47 16558740188937333304
15510794 2 14996281389377691560
17686467 74 18271801332713087752
18335252 98 17917997152490177055
20501277 279 16343986901344928207
21057603 130 17822009838977895263
21102433 48 18186798084627972667
21360443 89 18201716293596894103
21792961 116 18335132099936936629
21895431 317 17894907387164939106
232437 2 17967532371951550294
23399689 5 10015588307807455699
23576562 1 8069159105478242691
3092352 35 18409449164769451546
4017518 198 13984664750606029161
4625314 4 12324255970402046310
57828716 8 18040712580710907875
58083652 198 16081382847398368764
59521270 166 8790890674462019937
59521660 218 17968386752664172756
59682541 35 17561080306457737896
6691757 9 18343025488420923755
67123 10 18333449842128810950
9663363 56 17917991664851482853
9953998 17 16056874754283116439
9962374 69 17748825246217406892

> <PUBCHEM_SHAPE_MULTIPOLES>
693.36
41.87
2.26
1.37
35.97
0.25
0.13
23.87
-11.97
-5.79
-0.89
1.2
-0.15
-2.34

> <PUBCHEM_SHAPE_SELFOVERLAP>
1484.747

> <PUBCHEM_SHAPE_VOLUME>
386

> <PUBCHEM_COORDINATE_TYPE>
2
5
10

$$$$
49830348
  -OEChem-05102415033D

 68 72  0     1  0  0  0  0  0999 V2000
   -2.7293   -0.9346    1.2517 S   0  0  0  0  0  0  0  0  0  0  0  0
  -10.3520   -0.8344   -0.1764 O   0  0  0  0  0  0  0  0  0  0  0  0
    5.9074   -0.8109   -0.7786 O   0  0  0  0  0  0  0  0  0  0  0  0
   -7.0800    0.2337   -0.5438 N   0  0  0  0  0  0  0  0  0  0  0  0
   -7.0877    0.2582    0.7999 N   0  0  0  0  0  0  0  0  0  0  0  0
   -8.6395   -2.3900   -0.1688 N   0  0  0  0  0  0  0  0  0  0  0  0
   -2.0722    2.8749   -1.0107 N   0  0  0  0  0  0  0  0  0  0  0  0
    0.2533    2.6267   -0.6671 N   0  0  0  0  0  0  0  0  0  0  0  0
    5.2140    0.3428    1.1391 N   0  0  0  0  0  0  0  0  0  0  0  0
    7.4693    0.1212    0.6913 N   0  0  0  0  0  0  0  0  0  0  0  0
   -8.3368   -0.1652   -1.2983 C   0  0  1  0  0  0  0  0  0  0  0  0
   -3.6893    1.2786   -0.1748 C   0  0  0  0  0  0  0  0  0  0  0  0
   -2.6294    0.5392    0.3636 C   0  0  0  0  0  0  0  0  0  0  0  0
   -1.3042    0.9592    0.2190 C   0  0  0  0  0  0  0  0  0  0  0  0
   -5.0508    0.8643   -0.0377 C   0  0  0  0  0  0  0  0  0  0  0  0
   -0.3980    0.0439    0.8517 C   0  0  0  0  0  0  0  0  0  0  0  0
   -5.8837    0.5884   -1.0946 C   0  0  0  0  0  0  0  0  0  0  0  0
   -1.0601    2.1493   -0.4847 C   0  0  0  0  0  0  0  0  0  0  0  0
    1.0406    0.1199    0.9256 C   0  0  0  0  0  0  0  0  0  0  0  0
   -5.8456    0.6441    1.1033 C   0  0  0  0  0  0  0  0  0  0  0  0
   -9.2040   -1.1544   -0.5047 C   0  0  0  0  0  0  0  0  0  0  0  0
   -9.1333    1.0952   -1.6618 C   0  0  0  0  0  0  0  0  0  0  0  0
   -1.0377   -1.0187    1.4446 C   0  0  0  0  0  0  0  0  0  0  0  0
   -3.3351    2.4345   -0.8482 C   0  0  0  0  0  0  0  0  0  0  0  0
    1.8222   -0.4696   -0.0681 C   0  0  0  0  0  0  0  0  0  0  0  0
    1.6502    0.7834    1.9904 C   0  0  0  0  0  0  0  0  0  0  0  0
    3.8227    0.2677    1.0682 C   0  0  0  0  0  0  0  0  0  0  0  0
    3.2132   -0.3958    0.0031 C   0  0  0  0  0  0  0  0  0  0  0  0
    3.0412    0.8572    2.0617 C   0  0  0  0  0  0  0  0  0  0  0  0
   -9.4011   -3.3198    0.6576 C   0  0  0  0  0  0  0  0  0  0  0  0
   -7.2946   -2.8397   -0.5189 C   0  0  0  0  0  0  0  0  0  0  0  0
    6.1746   -0.1829    0.2409 C   0  0  0  0  0  0  0  0  0  0  0  0
    8.7033   -0.2182    0.0883 C   0  0  0  0  0  0  0  0  0  0  0  0
    9.9023    0.1724    0.6848 C   0  0  0  0  0  0  0  0  0  0  0  0
    8.7208   -0.9437   -1.1029 C   0  0  0  0  0  0  0  0  0  0  0  0
   11.1361   -0.8884   -1.1011 C   0  0  0  0  0  0  0  0  0  0  0  0
   11.1186   -0.1627    0.0901 C   0  0  0  0  0  0  0  0  0  0  0  0
    9.9372   -1.2787   -1.6976 C   0  0  0  0  0  0  0  0  0  0  0  0
   12.4372   -1.2471   -1.7362 C   0  0  0  0  0  0  0  0  0  0  0  0
   -7.9881   -0.6469   -2.2186 H   0  0  0  0  0  0  0  0  0  0  0  0
   -5.7353    0.6114   -2.1660 H   0  0  0  0  0  0  0  0  0  0  0  0
   -5.5783    0.7510    2.1453 H   0  0  0  0  0  0  0  0  0  0  0  0
   -8.5252    1.7814   -2.2613 H   0  0  0  0  0  0  0  0  0  0  0  0
  -10.0259    0.8395   -2.2425 H   0  0  0  0  0  0  0  0  0  0  0  0
   -9.4557    1.6366   -0.7651 H   0  0  0  0  0  0  0  0  0  0  0  0
   -0.6003   -1.8476    1.9854 H   0  0  0  0  0  0  0  0  0  0  0  0
   -4.0878    3.0769   -1.2980 H   0  0  0  0  0  0  0  0  0  0  0  0
    1.3614   -0.9892   -0.9052 H   0  0  0  0  0  0  0  0  0  0  0  0
    1.0555    1.2494    2.7725 H   0  0  0  0  0  0  0  0  0  0  0  0
    3.7468   -0.8765   -0.8043 H   0  0  0  0  0  0  0  0  0  0  0  0
    3.5027    1.3780    2.8969 H   0  0  0  0  0  0  0  0  0  0  0  0
    0.3741    3.4891   -1.1824 H   0  0  0  0  0  0  0  0  0  0  0  0
    1.0675    2.1549   -0.3130 H   0  0  0  0  0  0  0  0  0  0  0  0
   -9.5313   -4.2559    0.1067 H   0  0  0  0  0  0  0  0  0  0  0  0
  -10.3858   -2.9260    0.9205 H   0  0  0  0  0  0  0  0  0  0  0  0
   -8.8405   -3.5109    1.5775 H   0  0  0  0  0  0  0  0  0  0  0  0
   -7.3319   -3.8993   -0.7905 H   0  0  0  0  0  0  0  0  0  0  0  0
   -6.8787   -2.2948   -1.3655 H   0  0  0  0  0  0  0  0  0  0  0  0
   -6.6476   -2.7155    0.3541 H   0  0  0  0  0  0  0  0  0  0  0  0
    5.5840    0.8424    1.9439 H   0  0  0  0  0  0  0  0  0  0  0  0
    7.5389    0.6504    1.5569 H   0  0  0  0  0  0  0  0  0  0  0  0
    9.9026    0.7377    1.6133 H   0  0  0  0  0  0  0  0  0  0  0  0
    7.8381   -1.2827   -1.6257 H   0  0  0  0  0  0  0  0  0  0  0  0
   12.0461    0.1456    0.5654 H   0  0  0  0  0  0  0  0  0  0  0  0
    9.9394   -1.8460   -2.6247 H   0  0  0  0  0  0  0  0  0  0  0  0
   12.7848   -2.2143   -1.3599 H   0  0  0  0  0  0  0  0  0  0  0  0
   12.3416   -1.3080   -2.8257 H   0  0  0  0  0  0  0  0  0  0  0  0
   13.2019   -0.4922   -1.5238 H   0  0  0  0  0  0  0  0  0  0  0  0
  1 13  1  0  0  0  0
  1 23  1  0  0  0  0
  2 21  2  0  0  0  0
  3 32  2  0  0  0  0
  4  5  1  0  0  0  0
  4 11  1  0  0  0  0
  4 17  1  0  0  0  0
  5 20  2  0  0  0  0
  6 21  1  0  0  0  0
  6 30  1  0  0  0  0
  6 31  1  0  0  0  0
  7 18  2  0  0  0  0
  7 24  1  0  0  0  0
  8 18  1  0  0  0  0
  8 52  1  0  0  0  0
  8 53  1  0  0  0  0
  9 27  1  0  0  0  0
  9 32  1  0  0  0  0
  9 60  1  0  0  0  0
 10 32  1  0  0  0  0
 10 33  1  0  0  0  0
 10 61  1  0  0  0  0
 11 21  1  0  0  0  0
 11 22  1  0  0  0  0
 11 40  1  0  0  0  0
 12 13  1  0  0  0  0
 12 15  1  0  0  0  0
 12 24  2  0  0  0  0
 13 14  2  0  0  0  0
 14 16  1  0  0  0  0
 14 18  1  0  0  0  0
 15 17  2  0  0  0  0
 15 20  1  0  0  0  0
 16 19  1  0  0  0  0
 16 23  2  0  0  0  0
 17 41  1  0  0  0  0
 19 25  2  0  0  0  0
 19 26  1  0  0  0  0
 20 42  1  0  0  0  0
 22 43  1  0  0  0  0
 22 44  1  0  0  0  0
 22 45  1  0  0  0  0
 23 46  1  0  0  0  0
 24 47  1  0  0  0  0
 25 28  1  0  0  0  0
 25 48  1  0  0  0  0
 26 29  2  0  0  0  0
 26 49  1  0  0  0  0
 27 28  2  0  0  0  0
 27 29  1  0  0  0  0
 28 50  1  0  0  0  0
 29 51  1  0  0  0  0
 30 54  1  0  0  0  0
 30 55  1  0  0  0  0
 30 56  1  0  0  0  0
 31 57  1  0  0  0  0
 31 58  1  0  0  0  0
 31 59  1  0  0  0  0
 33 34  2  0  0  0  0
 33 35  1  0  0  0  0
 34 37  1  0  0  0  0
 34 62  1  0  0  0  0
 35 38  2  0  0  0  0
 35 63  1  0  0  0  0
 36 37  2  0  0  0  0
 36 38  1  0  0  0  0
 36 39  1  0  0  0  0
 37 64  1  0  0  0  0
 38 65  1  0  0  0  0
 39 66  1  0  0  0  0
 39 67  1  0  0  0  0
 39 68  1  0  0  0  0
M  END
> <PUBCHEM_COMPOUND_CID>
49830348

> <PUBCHEM_CONFORMER_RMSD>
1

> <PUBCHEM_CONFORMER_DIVERSEORDER>
1
85
14
64
95
79
99
78
75
4
98
73
60
81
76
56
40
104
93
77
61
89
21
57
113
35
74
108
24
105
82
80
100
112
88
96
110
67
106
18
91
53
90
59
41
84
58
47
107
8
111
20
28
103
11
101
62
17
83
39
102
87
9
50
109
6
22
72
29
38
86
16
42
97
36
65
34
70
32
15
26
63
19
43
7
71
25
30
92
12
55
48
49
94
13
44
52
66
46
68
54
5
23
31
45
27
51
3
69
2
10
37
33

> <PUBCHEM_MMFF94_PARTIAL_CHARGES>
53
1 -0.08
10 -0.55
11 0.32
12 0.05
13 0.04
15 -0.05
16 -0.05
17 -0.3
18 0.41
19 0.05
2 -0.57
20 0.14
21 0.57
23 -0.11
24 0.16
25 -0.15
26 -0.15
27 0.12
28 -0.15
29 -0.15
3 -0.57
30 0.3
31 0.3
32 0.69
33 0.12
34 -0.15
35 -0.15
36 -0.14
37 -0.15
38 -0.15
39 0.14
4 0.31
41 0.15
42 0.15
46 0.15
47 0.15
48 0.15
49 0.15
5 -0.71
50 0.15
51 0.15
52 0.4
53 0.4
6 -0.66
60 0.37
61 0.37
62 0.15
63 0.15
64 0.15
65 0.15
7 -0.62
8 -0.9
9 -0.55

> <PUBCHEM_EFFECTIVE_ROTOR_COUNT>
9

> <PUBCHEM_PHARMACOPHORE_FEATURES>
12
1 10 donor
1 2 acceptor
1 3 acceptor
1 5 acceptor
1 8 donor
1 9 donor
3 7 8 18 cation
5 1 13 14 16 23 rings
5 4 5 15 17 20 rings
6 19 25 26 27 28 29 rings
6 33 34 35 36 37 38 rings
6 7 12 13 14 18 24 rings

> <PUBCHEM_HEAVY_ATOM_COUNT>
39

> <PUBCHEM_ATOM_DEF_STEREO_COUNT>
0

> <PUBCHEM_ATOM_UDEF_STEREO_COUNT>
1

> <PUBCHEM_BOND_DEF_STEREO_COUNT>
0

> <PUBCHEM_BOND_UDEF_STEREO_COUNT>
0

> <PUBCHEM_ISOTOPIC_ATOM_COUNT>
0

> <PUBCHEM_COMPONENT_COUNT>
1

> <PUBCHEM_CACTVS_TAUTO_COUNT>
6

> <PUBCHEM_CONFORMER_ID>
02F859CC00000001

> <PUBCHEM_MMFF94_ENERGY>
120.7277

> <PUBCHEM_FEATURE_SELFOVERLAP>
61.011

> <PUBCHEM_SHAPE_FINGERPRINT>
10076449 9 18343302548450679688
10168742 298 18341901779786088390
10674148 151 10447926170198104806
11408170 108 15338849625778925742
11456790 92 11023821799221210803
12013929 2 18059850642018976689
12089408 11 17603864460733138376
12522641 33 16443064985589181194
12559415 141 17131843071126142158
12664476 115 16515683347599733652
13553643 46 12107788497286479726
14118638 360 18115306662559325784
14202775 3 17846786191929897894
14344974 52 18261672658311629008
15061470 23 14056723457472593430
15065858 18 18130785647337173456
15247644 1 17846498136314275142
15461852 350 18260546723121700087
15510794 2 18060703896984929706
15538507 75 10447936036898845228
16728433 110 17060050468190971128
16992752 21 18187361009212276285
1754911 235 17022902354342018830
1818759 1 16558750101420878758
20105231 36 17346876758359534078
20580484 106 10592042449163823319
21362267 2 14057007182954756486
21362267 20 16271916151379588958
21362267 313 9222965755526100532
21792961 116 16271924892529201873
232437 2 16773796987806684014
23576562 1 17241331421191356287
249057 3 18186525419440717912
306946 40 11963388557299803414
335352 9 17676206875121027376
4017518 198 18272929423818408871
4353968 344 18113897152824325909
44389302 135 13830132776778886676
4516262 110 14996002138951499632
45377200 153 18343016731014678107
4760202 170 14707215444218155022
5028188 123 18411140203902642957
54039377 194 16917347026447284696
6126387 218 10737289047932537944
636775 8 18409167723308051359
6673363 416 18259704480051610621
6691757 9 17603879883253615752
9937071 3 17203611484883751134

> <PUBCHEM_SHAPE_MULTIPOLES>
759.85
45.25
2.29
1.58
69.93
0.47
-0.12
27.84
20.08
-6.25
0.53
1.13
-0.08
3.15

> <PUBCHEM_SHAPE_SELFOVERLAP>
1652.047

> <PUBCHEM_SHAPE_VOLUME>
419.5

> <PUBCHEM_COORDINATE_TYPE>
2
5
10

$$$$
49830365
  -OEChem-05102415033D

 59 63  0     1  0  0  0  0  0999 V2000
   -3.4415   -0.2608    1.7555 S   0  0  0  0  0  0  0  0  0  0  0  0
   11.5124    0.3034    0.1139 F   0  0  0  0  0  0  0  0  0  0  0  0
   -8.4801   -3.1334   -0.3639 O   0  0  0  0  0  0  0  0  0  0  0  0
    5.1138   -1.2547   -0.3775 O   0  0  0  0  0  0  0  0  0  0  0  0
   -7.8684   -0.1196   -0.2218 N   0  0  0  0  0  0  0  0  0  0  0  0
   -7.8276    0.5795    0.9253 N   0  0  0  0  0  0  0  0  0  0  0  0
   -2.9089    1.8812   -2.1421 N   0  0  0  0  0  0  0  0  0  0  0  0
   -0.5700    1.8195   -1.8064 N   0  0  0  0  0  0  0  0  0  0  0  0
    4.4779    0.7149    0.7207 N   0  0  0  0  0  0  0  0  0  0  0  0
    6.7176    0.2778    0.3627 N   0  0  0  0  0  0  0  0  0  0  0  0
   -2.0758    0.8407   -0.1434 C   0  0  0  0  0  0  0  0  0  0  0  0
   -3.3903    0.5628    0.2422 C   0  0  0  0  0  0  0  0  0  0  0  0
   -4.4770    0.9390   -0.5561 C   0  0  0  0  0  0  0  0  0  0  0  0
   -1.1372    0.3616    0.8306 C   0  0  0  0  0  0  0  0  0  0  0  0
   -5.8293    0.6622   -0.1782 C   0  0  0  0  0  0  0  0  0  0  0  0
   -9.0835   -0.7977   -0.6049 C   0  0  0  0  0  0  0  0  0  0  0  0
   -6.6968   -0.1017   -0.9202 C   0  0  0  0  0  0  0  0  0  0  0  0
    0.3022    0.4516    0.8030 C   0  0  0  0  0  0  0  0  0  0  0  0
   -1.8705    1.5110   -1.3598 C   0  0  0  0  0  0  0  0  0  0  0  0
   -9.2941   -2.0968    0.1818 C   0  0  1  0  0  0  0  0  0  0  0  0
   -1.7431   -0.2511    1.9018 C   0  0  0  0  0  0  0  0  0  0  0  0
   -4.1602    1.5940   -1.7332 C   0  0  0  0  0  0  0  0  0  0  0  0
   -6.5795    1.0548    0.9464 C   0  0  0  0  0  0  0  0  0  0  0  0
    1.0536   -0.5655    0.2142 C   0  0  0  0  0  0  0  0  0  0  0  0
    0.9426    1.5563    1.3644 C   0  0  0  0  0  0  0  0  0  0  0  0
  -10.7481   -2.5481    0.1252 C   0  0  0  0  0  0  0  0  0  0  0  0
    3.0858    0.6266    0.7487 C   0  0  0  0  0  0  0  0  0  0  0  0
    2.4454   -0.4781    0.1870 C   0  0  0  0  0  0  0  0  0  0  0  0
    2.3345    1.6438    1.3373 C   0  0  0  0  0  0  0  0  0  0  0  0
    5.4109   -0.2007    0.1755 C   0  0  0  0  0  0  0  0  0  0  0  0
    7.9328   -0.3304   -0.0317 C   0  0  0  0  0  0  0  0  0  0  0  0
    9.1474    0.2987    0.2410 C   0  0  0  0  0  0  0  0  0  0  0  0
    7.9161   -1.5579   -0.6942 C   0  0  0  0  0  0  0  0  0  0  0  0
   10.3455   -0.2997   -0.1487 C   0  0  0  0  0  0  0  0  0  0  0  0
    9.1143   -2.1561   -1.0839 C   0  0  0  0  0  0  0  0  0  0  0  0
   10.3291   -1.5270   -0.8113 C   0  0  0  0  0  0  0  0  0  0  0  0
   -9.9018   -0.0899   -0.4270 H   0  0  0  0  0  0  0  0  0  0  0  0
   -9.0307   -0.9949   -1.6819 H   0  0  0  0  0  0  0  0  0  0  0  0
   -6.5845   -0.6242   -1.8612 H   0  0  0  0  0  0  0  0  0  0  0  0
   -9.0034   -1.9658    1.2307 H   0  0  0  0  0  0  0  0  0  0  0  0
   -1.2773   -0.6978    2.7702 H   0  0  0  0  0  0  0  0  0  0  0  0
   -4.9358    1.9284   -2.4175 H   0  0  0  0  0  0  0  0  0  0  0  0
   -6.2756    1.6706    1.7813 H   0  0  0  0  0  0  0  0  0  0  0  0
    0.5684   -1.4322   -0.2289 H   0  0  0  0  0  0  0  0  0  0  0  0
    0.3716    2.3585    1.8259 H   0  0  0  0  0  0  0  0  0  0  0  0
  -11.0564   -2.7424   -0.9080 H   0  0  0  0  0  0  0  0  0  0  0  0
  -10.8817   -3.4859    0.6753 H   0  0  0  0  0  0  0  0  0  0  0  0
  -11.4155   -1.7955    0.5559 H   0  0  0  0  0  0  0  0  0  0  0  0
    2.9545   -1.3051   -0.2867 H   0  0  0  0  0  0  0  0  0  0  0  0
    2.8204    2.5106    1.7781 H   0  0  0  0  0  0  0  0  0  0  0  0
   -0.4775    2.3032   -2.6904 H   0  0  0  0  0  0  0  0  0  0  0  0
    0.2617    1.5837   -1.2930 H   0  0  0  0  0  0  0  0  0  0  0  0
   -8.6233   -3.9324    0.1715 H   0  0  0  0  0  0  0  0  0  0  0  0
    4.8714    1.5490    1.1494 H   0  0  0  0  0  0  0  0  0  0  0  0
    6.8127    1.1708    0.8396 H   0  0  0  0  0  0  0  0  0  0  0  0
    9.1748    1.2552    0.7565 H   0  0  0  0  0  0  0  0  0  0  0  0
    7.0192   -2.1073   -0.9414 H   0  0  0  0  0  0  0  0  0  0  0  0
    9.1031   -3.1120   -1.5998 H   0  0  0  0  0  0  0  0  0  0  0  0
   11.2621   -1.9926   -1.1145 H   0  0  0  0  0  0  0  0  0  0  0  0
  1 12  1  0  0  0  0
  1 21  1  0  0  0  0
  2 34  1  0  0  0  0
  3 20  1  0  0  0  0
  3 53  1  0  0  0  0
  4 30  2  0  0  0  0
  5  6  1  0  0  0  0
  5 16  1  0  0  0  0
  5 17  1  0  0  0  0
  6 23  2  0  0  0  0
  7 19  2  0  0  0  0
  7 22  1  0  0  0  0
  8 19  1  0  0  0  0
  8 51  1  0  0  0  0
  8 52  1  0  0  0  0
  9 27  1  0  0  0  0
  9 30  1  0  0  0  0
  9 54  1  0  0  0  0
 10 30  1  0  0  0  0
 10 31  1  0  0  0  0
 10 55  1  0  0  0  0
 11 12  2  0  0  0  0
 11 14  1  0  0  0  0
 11 19  1  0  0  0  0
 12 13  1  0  0  0  0
 13 15  1  0  0  0  0
 13 22  2  0  0  0  0
 14 18  1  0  0  0  0
 14 21  2  0  0  0  0
 15 17  2  0  0  0  0
 15 23  1  0  0  0  0
 16 20  1  0  0  0  0
 16 37  1  0  0  0  0
 16 38  1  0  0  0  0
 17 39  1  0  0  0  0
 18 24  2  0  0  0  0
 18 25  1  0  0  0  0
 20 26  1  0  0  0  0
 20 40  1  0  0  0  0
 21 41  1  0  0  0  0
 22 42  1  0  0  0  0
 23 43  1  0  0  0  0
 24 28  1  0  0  0  0
 24 44  1  0  0  0  0
 25 29  2  0  0  0  0
 25 45  1  0  0  0  0
 26 46  1  0  0  0  0
 26 47  1  0  0  0  0
 26 48  1  0  0  0  0
 27 28  2  0  0  0  0
 27 29  1  0  0  0  0
 28 49  1  0  0  0  0
 29 50  1  0  0  0  0
 31 32  2  0  0  0  0
 31 33  1  0  0  0  0
 32 34  1  0  0  0  0
 32 56  1  0  0  0  0
 33 35  2  0  0  0  0
 33 57  1  0  0  0  0
 34 36  2  0  0  0  0
 35 36  1  0  0  0  0
 35 58  1  0  0  0  0
 36 59  1  0  0  0  0
M  END
> <PUBCHEM_COMPOUND_CID>
49830365

> <PUBCHEM_CONFORMER_RMSD>
1

> <PUBCHEM_CONFORMER_DIVERSEORDER>
1
74
13
27
80
20
60
44
77
71
41
5
78
23
65
19
73
45
52
50
32
22
43
57
34
8
28
46
47
63
75
18
66
16
14
69
35
70
15
61
42
81
26
31
59
17
25
53
56
67
51
72
76
12
30
21
40
62
58
4
29
48
64
38
79
2
33
36
3
68
10
39
54
55
11
6
37
49
24
7
9

> <PUBCHEM_MMFF94_PARTIAL_CHARGES>
51
1 -0.08
10 -0.55
12 0.04
13 0.05
14 -0.05
15 -0.05
16 0.26
17 -0.3
18 0.05
19 0.41
2 -0.19
20 0.28
21 -0.11
22 0.16
23 0.14
24 -0.15
25 -0.15
27 0.12
28 -0.15
29 -0.15
3 -0.68
30 0.69
31 0.12
32 -0.15
33 -0.15
34 0.19
35 -0.15
36 -0.15
39 0.15
4 -0.57
41 0.15
42 0.15
43 0.15
44 0.15
45 0.15
49 0.15
5 0.31
50 0.15
51 0.4
52 0.4
53 0.4
54 0.37
55 0.37
56 0.15
57 0.15
58 0.15
59 0.15
6 -0.71
7 -0.62
8 -0.9
9 -0.55

> <PUBCHEM_EFFECTIVE_ROTOR_COUNT>
8

> <PUBCHEM_PHARMACOPHORE_FEATURES>
13
1 10 donor
1 3 acceptor
1 3 donor
1 4 acceptor
1 6 acceptor
1 8 donor
1 9 donor
3 7 8 19 cation
5 1 11 12 14 21 rings
5 5 6 15 17 23 rings
6 18 24 25 27 28 29 rings
6 31 32 33 34 35 36 rings
6 7 11 12 13 19 22 rings

> <PUBCHEM_HEAVY_ATOM_COUNT>
36

> <PUBCHEM_ATOM_DEF_STEREO_COUNT>
0

> <PUBCHEM_ATOM_UDEF_STEREO_COUNT>
1

> <PUBCHEM_BOND_DEF_STEREO_COUNT>
0

> <PUBCHEM_BOND_UDEF_STEREO_COUNT>
0

> <PUBCHEM_ISOTOPIC_ATOM_COUNT>
0

> <PUBCHEM_COMPONENT_COUNT>
1

> <PUBCHEM_CACTVS_TAUTO_COUNT>
6

> <PUBCHEM_CONFORMER_ID>
02F859DD00000001

> <PUBCHEM_MMFF94_ENERGY>
102.0554

> <PUBCHEM_FEATURE_SELFOVERLAP>
66.087

> <PUBCHEM_SHAPE_FINGERPRINT>
10 15 9583513214612496200
10076449 9 18334013873865838960
10299344 5 16200428049658640548
10429389 143 11530476727905065943
10674148 151 11815894561307061487
11135926 11 15697990791522970044
11315181 36 14634876323326479393
11408170 108 16056609703862947054
11456790 92 12247676106377275123
11476731 38 17846497046594841304
12013929 2 18342170052434146397
12082328 90 18201719497178305492
12522641 33 13984662538993017496
12559415 141 18131362916132519878
12664476 115 16877661267082280164
12758862 11 17967256425141491592
13553643 46 11455885845696891298
14118638 360 17313381163691586840
14202775 3 18130794438861864062
14251764 46 8070024467672134008
14344974 52 18040715905279020228
14395042 24 12895078435347124747
15065858 18 18343016658806393804
15247644 1 18412827988289751526
15461852 350 18113899355524947415
15510794 2 18342178877848076530
15538507 75 12607412053727187596
1577012 14 16226321495961998244
16067689 302 17917435289739320078
16728433 110 18131629011115497760
1754911 235 14779267518347296243
1818759 1 17489870423664678670
19315958 150 11455894671959828308
20105231 36 18202562895526818943
21792934 111 8286198350031106302
21792961 116 18187931630261540392
232437 2 18060701684860228170
24771293 8 14996565036515954774
249057 3 17313110761166750216
306946 40 8286206037284068419
335352 9 16805040731221747193
4017518 198 18334013896127257171
4149490 64 17560515217758244530
4516262 110 13623530152199221328
45377200 153 18337670914497614547
4760202 170 13479140120545128918
4874694 18 17167582679665340962
5028188 123 18260828186041995805
54039377 194 17775565338402395929
57676310 188 18260825982539878275
636775 8 18186521034379647307
6691757 9 16515697614964457793
67123 10 18202565069080535216
9663363 56 17386008356809430453
9937071 3 17346602963053640262

> <PUBCHEM_SHAPE_MULTIPOLES>
695.81
40.38
2.08
1.48
44.91
1.23
0.18
29.06
5.94
-3.28
0.48
-1.3
-0.65
2.13

> <PUBCHEM_SHAPE_SELFOVERLAP>
1526.291

> <PUBCHEM_SHAPE_VOLUME>
382.1

> <PUBCHEM_COORDINATE_TYPE>
2
5
10

$$$$
46223479
  -OEChem-05102415033D

 66 70  0     0  0  0  0  0  0999 V2000
   -3.4780   -1.0736   -1.1820 S   0  0  0  0  0  0  0  0  0  0  0  0
   -9.8366   -1.4435   -1.5068 O   0  0  0  0  0  0  0  0  0  0  0  0
    5.2879    0.2517   -0.8190 O   0  0  0  0  0  0  0  0  0  0  0  0
   11.7762    0.4849   -0.7702 O   0  0  0  0  0  0  0  0  0  0  0  0
   -7.9425    0.6210   -0.3444 N   0  0  0  0  0  0  0  0  0  0  0  0
   -7.6191    0.7290   -1.6444 N   0  0  0  0  0  0  0  0  0  0  0  0
   -2.8974    2.4495    1.5224 N   0  0  0  0  0  0  0  0  0  0  0  0
   -0.6106    1.8791    1.7024 N   0  0  0  0  0  0  0  0  0  0  0  0
    4.2967   -1.0094    0.8889 N   0  0  0  0  0  0  0  0  0  0  0  0
    6.5978   -0.8383    0.7825 N   0  0  0  0  0  0  0  0  0  0  0  0
   -9.8667   -1.0871   -0.1230 C   0  0  0  0  0  0  0  0  0  0  0  0
   -9.3789    0.3690    0.0532 C   0  0  0  0  0  0  0  0  0  0  0  0
   -5.7870    0.9715   -0.3020 C   0  0  0  0  0  0  0  0  0  0  0  0
   -9.0080   -2.1013    0.6351 C   0  0  0  0  0  0  0  0  0  0  0  0
  -11.3222   -1.1985    0.3476 C   0  0  0  0  0  0  0  0  0  0  0  0
   -4.4577    1.1673    0.1871 C   0  0  0  0  0  0  0  0  0  0  0  0
   -6.8809    0.7587    0.5009 C   0  0  0  0  0  0  0  0  0  0  0  0
   -3.4049    0.3117   -0.1590 C   0  0  0  0  0  0  0  0  0  0  0  0
   -2.1112    0.5189    0.3280 C   0  0  0  0  0  0  0  0  0  0  0  0
   -1.2064   -0.4815   -0.1613 C   0  0  0  0  0  0  0  0  0  0  0  0
   -6.3011    0.9430   -1.6122 C   0  0  0  0  0  0  0  0  0  0  0  0
   -1.8918    1.6140    1.1787 C   0  0  0  0  0  0  0  0  0  0  0  0
    0.2043   -0.6174    0.1073 C   0  0  0  0  0  0  0  0  0  0  0  0
   -4.1295    2.2137    1.0310 C   0  0  0  0  0  0  0  0  0  0  0  0
   -1.8162   -1.3983   -0.9844 C   0  0  0  0  0  0  0  0  0  0  0  0
    1.1356    0.0107   -0.7198 C   0  0  0  0  0  0  0  0  0  0  0  0
    0.6373   -1.3762    1.1947 C   0  0  0  0  0  0  0  0  0  0  0  0
    2.9324   -0.8792    0.6276 C   0  0  0  0  0  0  0  0  0  0  0  0
    2.4996   -0.1202   -0.4598 C   0  0  0  0  0  0  0  0  0  0  0  0
    2.0014   -1.5072    1.4548 C   0  0  0  0  0  0  0  0  0  0  0  0
    5.3896   -0.4562    0.1778 C   0  0  0  0  0  0  0  0  0  0  0  0
    7.9141   -0.5016    0.3875 C   0  0  0  0  0  0  0  0  0  0  0  0
    9.0039   -0.9780    1.1163 C   0  0  0  0  0  0  0  0  0  0  0  0
    8.1222    0.3061   -0.7305 C   0  0  0  0  0  0  0  0  0  0  0  0
   10.3017   -0.6464    0.7274 C   0  0  0  0  0  0  0  0  0  0  0  0
    9.4200    0.6378   -1.1195 C   0  0  0  0  0  0  0  0  0  0  0  0
   10.5097    0.1616   -0.3905 C   0  0  0  0  0  0  0  0  0  0  0  0
   11.9164    1.3146   -1.9225 C   0  0  0  0  0  0  0  0  0  0  0  0
   -9.9551    1.0602   -0.5742 H   0  0  0  0  0  0  0  0  0  0  0  0
   -9.4527    0.6954    1.0971 H   0  0  0  0  0  0  0  0  0  0  0  0
   -7.9901   -2.1391    0.2322 H   0  0  0  0  0  0  0  0  0  0  0  0
   -9.4118   -3.1150    0.5293 H   0  0  0  0  0  0  0  0  0  0  0  0
   -8.9537   -1.8629    1.7023 H   0  0  0  0  0  0  0  0  0  0  0  0
  -11.9681   -0.5270   -0.2297 H   0  0  0  0  0  0  0  0  0  0  0  0
  -11.7118   -2.2111    0.1912 H   0  0  0  0  0  0  0  0  0  0  0  0
  -11.4222   -0.9492    1.4090 H   0  0  0  0  0  0  0  0  0  0  0  0
   -6.9952    0.6915    1.5747 H   0  0  0  0  0  0  0  0  0  0  0  0
   -5.7760    1.0725   -2.5483 H   0  0  0  0  0  0  0  0  0  0  0  0
  -10.1648   -2.3548   -1.5929 H   0  0  0  0  0  0  0  0  0  0  0  0
   -4.8782    2.9330    1.3529 H   0  0  0  0  0  0  0  0  0  0  0  0
   -1.3730   -2.2488   -1.4854 H   0  0  0  0  0  0  0  0  0  0  0  0
    0.8133    0.6067   -1.5706 H   0  0  0  0  0  0  0  0  0  0  0  0
   -0.0756   -1.8711    1.8501 H   0  0  0  0  0  0  0  0  0  0  0  0
    3.1558    0.3964   -1.1454 H   0  0  0  0  0  0  0  0  0  0  0  0
    2.3246   -2.1011    2.3060 H   0  0  0  0  0  0  0  0  0  0  0  0
   -0.5065    2.6814    2.3102 H   0  0  0  0  0  0  0  0  0  0  0  0
    0.1966    1.3141    1.5022 H   0  0  0  0  0  0  0  0  0  0  0  0
    4.5343   -1.5775    1.6983 H   0  0  0  0  0  0  0  0  0  0  0  0
    6.5287   -1.4301    1.6066 H   0  0  0  0  0  0  0  0  0  0  0  0
    8.8557   -1.6083    1.9894 H   0  0  0  0  0  0  0  0  0  0  0  0
    7.3321    0.7129   -1.3452 H   0  0  0  0  0  0  0  0  0  0  0  0
   11.1468   -1.0203    1.2990 H   0  0  0  0  0  0  0  0  0  0  0  0
    9.5111    1.2689   -1.9971 H   0  0  0  0  0  0  0  0  0  0  0  0
   11.5302    0.8231   -2.8219 H   0  0  0  0  0  0  0  0  0  0  0  0
   11.4694    2.3020   -1.7643 H   0  0  0  0  0  0  0  0  0  0  0  0
   12.9887    1.4711   -2.0795 H   0  0  0  0  0  0  0  0  0  0  0  0
  1 18  1  0  0  0  0
  1 25  1  0  0  0  0
  2 11  1  0  0  0  0
  2 49  1  0  0  0  0
  3 31  2  0  0  0  0
  4 37  1  0  0  0  0
  4 38  1  0  0  0  0
  5  6  1  0  0  0  0
  5 12  1  0  0  0  0
  5 17  1  0  0  0  0
  6 21  2  0  0  0  0
  7 22  2  0  0  0  0
  7 24  1  0  0  0  0
  8 22  1  0  0  0  0
  8 56  1  0  0  0  0
  8 57  1  0  0  0  0
  9 28  1  0  0  0  0
  9 31  1  0  0  0  0
  9 58  1  0  0  0  0
 10 31  1  0  0  0  0
 10 32  1  0  0  0  0
 10 59  1  0  0  0  0
 11 12  1  0  0  0  0
 11 14  1  0  0  0  0
 11 15  1  0  0  0  0
 12 39  1  0  0  0  0
 12 40  1  0  0  0  0
 13 16  1  0  0  0  0
 13 17  2  0  0  0  0
 13 21  1  0  0  0  0
 14 41  1  0  0  0  0
 14 42  1  0  0  0  0
 14 43  1  0  0  0  0
 15 44  1  0  0  0  0
 15 45  1  0  0  0  0
 15 46  1  0  0  0  0
 16 18  1  0  0  0  0
 16 24  2  0  0  0  0
 17 47  1  0  0  0  0
 18 19  2  0  0  0  0
 19 20  1  0  0  0  0
 19 22  1  0  0  0  0
 20 23  1  0  0  0  0
 20 25  2  0  0  0  0
 21 48  1  0  0  0  0
 23 26  2  0  0  0  0
 23 27  1  0  0  0  0
 24 50  1  0  0  0  0
 25 51  1  0  0  0  0
 26 29  1  0  0  0  0
 26 52  1  0  0  0  0
 27 30  2  0  0  0  0
 27 53  1  0  0  0  0
 28 29  2  0  0  0  0
 28 30  1  0  0  0  0
 29 54  1  0  0  0  0
 30 55  1  0  0  0  0
 32 33  2  0  0  0  0
 32 34  1  0  0  0  0
 33 35  1  0  0  0  0
 33 60  1  0  0  0  0
 34 36  2  0  0  0  0
 34 61  1  0  0  0  0
 35 37  2  0  0  0  0
 35 62  1  0  0  0  0
 36 37  1  0  0  0  0
 36 63  1  0  0  0  0
 38 64  1  0  0  0  0
 38 65  1  0  0  0  0
 38 66  1  0  0  0  0
M  END
> <PUBCHEM_COMPOUND_CID>
46223479

> <PUBCHEM_CONFORMER_RMSD>
1

> <PUBCHEM_CONFORMER_DIVERSEORDER>
1
24
13
20
53
28
30
16
29
54
12
23
14
39
11
26
35
34
37
25
55
27
15
47
48
51
31
43
50
46
52
19
42
18
40
9
6
36
49
41
10
22
8
21
5
44
38
7
45
4
32
17
33
2
3

> <PUBCHEM_MMFF94_PARTIAL_CHARGES>
52
1 -0.08
10 -0.55
11 0.28
12 0.26
13 -0.05
16 0.05
17 -0.3
18 0.04
2 -0.68
20 -0.05
21 0.14
22 0.41
23 0.05
24 0.16
25 -0.11
26 -0.15
27 -0.15
28 0.12
29 -0.15
3 -0.57
30 -0.15
31 0.69
32 0.12
33 -0.15
34 -0.15
35 -0.15
36 -0.15
37 0.08
38 0.28
4 -0.36
47 0.15
48 0.15
49 0.4
5 0.31
50 0.15
51 0.15
52 0.15
53 0.15
54 0.15
55 0.15
56 0.4
57 0.4
58 0.37
59 0.37
6 -0.71
60 0.15
61 0.15
62 0.15
63 0.15
7 -0.62
8 -0.9
9 -0.55

> <PUBCHEM_EFFECTIVE_ROTOR_COUNT>
9

> <PUBCHEM_PHARMACOPHORE_FEATURES>
15
1 10 donor
1 2 acceptor
1 2 donor
1 3 acceptor
1 4 acceptor
1 6 acceptor
1 8 donor
1 9 donor
3 11 14 15 hydrophobe
3 7 8 22 cation
5 1 18 19 20 25 rings
5 5 6 13 17 21 rings
6 23 26 27 28 29 30 rings
6 32 33 34 35 36 37 rings
6 7 16 18 19 22 24 rings

> <PUBCHEM_HEAVY_ATOM_COUNT>
38

> <PUBCHEM_ATOM_DEF_STEREO_COUNT>
0

> <PUBCHEM_ATOM_UDEF_STEREO_COUNT>
0

> <PUBCHEM_BOND_DEF_STEREO_COUNT>
0

> <PUBCHEM_BOND_UDEF_STEREO_COUNT>
0

> <PUBCHEM_ISOTOPIC_ATOM_COUNT>
0

> <PUBCHEM_COMPONENT_COUNT>
1

> <PUBCHEM_CACTVS_TAUTO_COUNT>
6

> <PUBCHEM_CONFORMER_ID>
02C1507700000001

> <PUBCHEM_MMFF94_ENERGY>
124.8893

> <PUBCHEM_FEATURE_SELFOVERLAP>
76.237

> <PUBCHEM_SHAPE_FINGERPRINT>
10 15 16081089269292727866
10076449 9 17275102821331425427
10162869 55 18040154020092152150
10674148 151 11167938061296938279
12013929 94 18260268569189191091
12082328 90 14045743690938379456
12089408 11 18337952294947166200
12559415 90 16226038977560871068
12664476 115 18408039610955344752
12741549 16 11169911693639435710
12758862 11 17132104776141444154
12838862 33 12757147978733469153
13740195 50 16443066105868483214
14118638 360 17846502470637298322
14251764 46 18410573980861771598
14344974 52 18271523187110887008
15061470 23 17749104474230402949
15065858 18 15068344506094949752
15219723 13 15285346312478295840
15289351 153 14490191605211750117
15392192 104 18335698322197358834
15392192 29 17561077038884515967
17686467 74 18342450440030030609
18335252 98 18131070416227161655
20105231 36 17203887466222783071
21591340 7 17967250897523335874
21792961 116 16272211873648743150
232437 2 18186237324959490122
249057 3 17989200465381173412
3092352 35 18410292490008770274
335507 130 17489585662610913517
3525247 94 18040711442307386170
4874694 18 14201399369806998104
5381727 24 18186799167112302634
54039377 194 18201717362985462013
57828716 42 18409168853016695955
59521270 166 8862948277823391307
636775 8 18201718471013054399
6673363 416 18272653428713507129
6691757 9 18271815622100761058
67123 10 17967812743031975554
9663363 56 17918272044579760981
9937071 3 11455892465063705820
9953998 17 14345800444112470432

> <PUBCHEM_SHAPE_MULTIPOLES>
738.38
46.06
1.79
1.45
55.18
0.2
-0.07
-2.58
-12.75
-2.29
0.51
0.08
0.36
-2.73

> <PUBCHEM_SHAPE_SELFOVERLAP>
1608.861

> <PUBCHEM_SHAPE_VOLUME>
406.4

> <PUBCHEM_COORDINATE_TYPE>
2
5
10

$$$$
49830364
  -OEChem-05102415033D

 73 76  0     0  0  0  0  0  0999 V2000
   -1.9669    0.7831    2.0509 S   0  0  0  0  0  0  0  0  0  0  0  0
   -7.0386    1.0770    1.1124 O   0  0  0  0  0  0  0  0  0  0  0  0
    6.4292   -1.2350    0.0124 O   0  0  0  0  0  0  0  0  0  0  0  0
  -10.8636   -1.3782    0.3258 N   0  0  0  0  0  0  0  0  0  0  0  0
   -7.7929    0.3040   -0.9457 N   0  0  0  0  0  0  0  0  0  0  0  0
   -1.5217    1.7147   -2.3076 N   0  0  0  0  0  0  0  0  0  0  0  0
    0.8251    1.6247   -2.0428 N   0  0  0  0  0  0  0  0  0  0  0  0
    5.9312    0.9952    0.5304 N   0  0  0  0  0  0  0  0  0  0  0  0
    8.1308    0.3532    0.2389 N   0  0  0  0  0  0  0  0  0  0  0  0
   -9.4618   -1.2490   -0.0503 C   0  0  0  0  0  0  0  0  0  0  0  0
  -11.6970   -1.6041   -0.8568 C   0  0  0  0  0  0  0  0  0  0  0  0
  -11.0421   -2.4681    1.2872 C   0  0  0  0  0  0  0  0  0  0  0  0
   -9.1860    0.1456   -0.5925 C   0  0  0  0  0  0  0  0  0  0  0  0
   -0.6435    1.2325   -0.1241 C   0  0  0  0  0  0  0  0  0  0  0  0
    0.3173    0.9954    0.9151 C   0  0  0  0  0  0  0  0  0  0  0  0
   -1.9496    1.1455    0.3659 C   0  0  0  0  0  0  0  0  0  0  0  0
  -13.1687   -1.6738   -0.4862 C   0  0  0  0  0  0  0  0  0  0  0  0
  -10.6518   -3.8050    0.6802 C   0  0  0  0  0  0  0  0  0  0  0  0
    1.7562    0.9950    0.8172 C   0  0  0  0  0  0  0  0  0  0  0  0
   -3.0546    1.3413   -0.4711 C   0  0  0  0  0  0  0  0  0  0  0  0
   -0.4655    1.5229   -1.4861 C   0  0  0  0  0  0  0  0  0  0  0  0
   -0.2648    0.7413    2.1343 C   0  0  0  0  0  0  0  0  0  0  0  0
   -4.4101    1.2472    0.0308 C   0  0  0  0  0  0  0  0  0  0  0  0
   -6.8356    0.7591   -0.0549 C   0  0  0  0  0  0  0  0  0  0  0  0
    2.4345   -0.1859    0.5154 C   0  0  0  0  0  0  0  0  0  0  0  0
    2.4696    2.1758    1.0236 C   0  0  0  0  0  0  0  0  0  0  0  0
   -2.7642    1.6220   -1.7946 C   0  0  0  0  0  0  0  0  0  0  0  0
   -5.4841    0.8249   -0.6804 C   0  0  0  0  0  0  0  0  0  0  0  0
    4.5394    0.9947    0.6267 C   0  0  0  0  0  0  0  0  0  0  0  0
    3.8260   -0.1861    0.4201 C   0  0  0  0  0  0  0  0  0  0  0  0
    3.8612    2.1757    0.9285 C   0  0  0  0  0  0  0  0  0  0  0  0
    6.7973   -0.0862    0.2360 C   0  0  0  0  0  0  0  0  0  0  0  0
    9.2987   -0.4069   -0.0069 C   0  0  0  0  0  0  0  0  0  0  0  0
    9.1981   -1.7673   -0.2981 C   0  0  0  0  0  0  0  0  0  0  0  0
   10.3498   -2.5151   -0.5425 C   0  0  0  0  0  0  0  0  0  0  0  0
   10.5510    0.2056    0.0397 C   0  0  0  0  0  0  0  0  0  0  0  0
   11.6022   -1.9027   -0.4958 C   0  0  0  0  0  0  0  0  0  0  0  0
   11.7028   -0.5423   -0.2046 C   0  0  0  0  0  0  0  0  0  0  0  0
   10.2428   -3.9706   -0.8504 C   0  0  0  0  0  0  0  0  0  0  0  0
   -9.1497   -1.9981   -0.7899 H   0  0  0  0  0  0  0  0  0  0  0  0
   -8.8150   -1.3911    0.8264 H   0  0  0  0  0  0  0  0  0  0  0  0
  -11.6006   -0.7470   -1.5332 H   0  0  0  0  0  0  0  0  0  0  0  0
  -11.4064   -2.4788   -1.4493 H   0  0  0  0  0  0  0  0  0  0  0  0
  -10.4169   -2.2784    2.1696 H   0  0  0  0  0  0  0  0  0  0  0  0
  -12.0625   -2.5055    1.6830 H   0  0  0  0  0  0  0  0  0  0  0  0
   -9.4505    0.9081    0.1496 H   0  0  0  0  0  0  0  0  0  0  0  0
   -9.7519    0.3520   -1.5056 H   0  0  0  0  0  0  0  0  0  0  0  0
  -13.4623   -0.8441    0.1660 H   0  0  0  0  0  0  0  0  0  0  0  0
  -13.7786   -1.6041   -1.3941 H   0  0  0  0  0  0  0  0  0  0  0  0
  -13.4365   -2.6173   -0.0013 H   0  0  0  0  0  0  0  0  0  0  0  0
  -10.7191   -4.5732    1.4602 H   0  0  0  0  0  0  0  0  0  0  0  0
   -9.6216   -3.8374    0.3152 H   0  0  0  0  0  0  0  0  0  0  0  0
  -11.3240   -4.1319   -0.1179 H   0  0  0  0  0  0  0  0  0  0  0  0
   -7.5238    0.0569   -1.8937 H   0  0  0  0  0  0  0  0  0  0  0  0
    0.2207    0.5311    3.0783 H   0  0  0  0  0  0  0  0  0  0  0  0
   -4.5593    1.5489    1.0644 H   0  0  0  0  0  0  0  0  0  0  0  0
    1.8921   -1.1141    0.3505 H   0  0  0  0  0  0  0  0  0  0  0  0
    1.9561    3.1052    1.2582 H   0  0  0  0  0  0  0  0  0  0  0  0
   -3.5479    1.8019   -2.5253 H   0  0  0  0  0  0  0  0  0  0  0  0
   -5.3868    0.5053   -1.7130 H   0  0  0  0  0  0  0  0  0  0  0  0
    4.2762   -1.1393    0.1827 H   0  0  0  0  0  0  0  0  0  0  0  0
    4.4042    3.1032    1.0912 H   0  0  0  0  0  0  0  0  0  0  0  0
    1.6687    1.4984   -1.5104 H   0  0  0  0  0  0  0  0  0  0  0  0
    0.8976    1.8361   -3.0297 H   0  0  0  0  0  0  0  0  0  0  0  0
    6.3802    1.8930    0.6937 H   0  0  0  0  0  0  0  0  0  0  0  0
    8.2868    1.3372    0.4422 H   0  0  0  0  0  0  0  0  0  0  0  0
    8.2612   -2.3037   -0.3480 H   0  0  0  0  0  0  0  0  0  0  0  0
   10.6435    1.2650    0.2651 H   0  0  0  0  0  0  0  0  0  0  0  0
   12.5081   -2.4736   -0.6819 H   0  0  0  0  0  0  0  0  0  0  0  0
   12.6779   -0.0655   -0.1678 H   0  0  0  0  0  0  0  0  0  0  0  0
   11.1633   -4.3565   -1.3014 H   0  0  0  0  0  0  0  0  0  0  0  0
    9.4323   -4.1570   -1.5632 H   0  0  0  0  0  0  0  0  0  0  0  0
   10.0469   -4.5355    0.0665 H   0  0  0  0  0  0  0  0  0  0  0  0
  1 16  1  0  0  0  0
  1 22  1  0  0  0  0
  2 24  2  0  0  0  0
  3 32  2  0  0  0  0
  4 10  1  0  0  0  0
  4 11  1  0  0  0  0
  4 12  1  0  0  0  0
  5 13  1  0  0  0  0
  5 24  1  0  0  0  0
  5 54  1  0  0  0  0
  6 21  2  0  0  0  0
  6 27  1  0  0  0  0
  7 21  1  0  0  0  0
  7 63  1  0  0  0  0
  7 64  1  0  0  0  0
  8 29  1  0  0  0  0
  8 32  1  0  0  0  0
  8 65  1  0  0  0  0
  9 32  1  0  0  0  0
  9 33  1  0  0  0  0
  9 66  1  0  0  0  0
 10 13  1  0  0  0  0
 10 40  1  0  0  0  0
 10 41  1  0  0  0  0
 11 17  1  0  0  0  0
 11 42  1  0  0  0  0
 11 43  1  0  0  0  0
 12 18  1  0  0  0  0
 12 44  1  0  0  0  0
 12 45  1  0  0  0  0
 13 46  1  0  0  0  0
 13 47  1  0  0  0  0
 14 15  1  0  0  0  0
 14 16  2  0  0  0  0
 14 21  1  0  0  0  0
 15 19  1  0  0  0  0
 15 22  2  0  0  0  0
 16 20  1  0  0  0  0
 17 48  1  0  0  0  0
 17 49  1  0  0  0  0
 17 50  1  0  0  0  0
 18 51  1  0  0  0  0
 18 52  1  0  0  0  0
 18 53  1  0  0  0  0
 19 25  2  0  0  0  0
 19 26  1  0  0  0  0
 20 23  1  0  0  0  0
 20 27  2  0  0  0  0
 22 55  1  0  0  0  0
 23 28  2  3  0  0  0
 23 56  1  0  0  0  0
 24 28  1  0  0  0  0
 25 30  1  0  0  0  0
 25 57  1  0  0  0  0
 26 31  2  0  0  0  0
 26 58  1  0  0  0  0
 27 59  1  0  0  0  0
 28 60  1  0  0  0  0
 29 30  2  0  0  0  0
 29 31  1  0  0  0  0
 30 61  1  0  0  0  0
 31 62  1  0  0  0  0
 33 34  1  0  0  0  0
 33 36  2  0  0  0  0
 34 35  2  0  0  0  0
 34 67  1  0  0  0  0
 35 37  1  0  0  0  0
 35 39  1  0  0  0  0
 36 38  1  0  0  0  0
 36 68  1  0  0  0  0
 37 38  2  0  0  0  0
 37 69  1  0  0  0  0
 38 70  1  0  0  0  0
 39 71  1  0  0  0  0
 39 72  1  0  0  0  0
 39 73  1  0  0  0  0
M  END
> <PUBCHEM_COMPOUND_CID>
49830364

> <PUBCHEM_CONFORMER_RMSD>
1.2

> <PUBCHEM_CONFORMER_DIVERSEORDER>
4
38
58
37
47
40
39
16
48
68
9
22
65
13
70
55
33
26
62
30
66
54
51
17
35
60
42
52
18
69
10
25
31
45
59
43
32
15
46
71
7
67
2
44
56
57
53
11
64
29
28
12
36
24
21
19
23
49
61
14
8
63
72
5
34
41
27
1
3
6
20
50

> <PUBCHEM_MMFF94_PARTIAL_CHARGES>
53
1 -0.08
10 0.27
11 0.27
12 0.27
13 0.3
15 -0.05
16 0.04
19 0.05
2 -0.57
20 0.03
21 0.41
22 -0.11
23 -0.18
24 0.62
25 -0.15
26 -0.15
27 0.16
28 -0.14
29 0.12
3 -0.57
30 -0.15
31 -0.15
32 0.69
33 0.12
34 -0.15
35 -0.14
36 -0.15
37 -0.15
38 -0.15
39 0.14
4 -0.81
5 -0.73
54 0.37
55 0.15
56 0.15
57 0.15
58 0.15
59 0.15
6 -0.62
60 0.15
61 0.15
62 0.15
63 0.4
64 0.4
65 0.37
66 0.37
67 0.15
68 0.15
69 0.15
7 -0.9
70 0.15
8 -0.55
9 -0.55

> <PUBCHEM_EFFECTIVE_ROTOR_COUNT>
13

> <PUBCHEM_PHARMACOPHORE_FEATURES>
12
1 2 acceptor
1 3 acceptor
1 4 cation
1 5 donor
1 7 donor
1 8 donor
1 9 donor
3 6 7 21 cation
5 1 14 15 16 22 rings
6 19 25 26 29 30 31 rings
6 33 34 35 36 37 38 rings
6 6 14 16 20 21 27 rings

> <PUBCHEM_HEAVY_ATOM_COUNT>
39

> <PUBCHEM_ATOM_DEF_STEREO_COUNT>
0

> <PUBCHEM_ATOM_UDEF_STEREO_COUNT>
0

> <PUBCHEM_BOND_DEF_STEREO_COUNT>
0

> <PUBCHEM_BOND_UDEF_STEREO_COUNT>
1

> <PUBCHEM_ISOTOPIC_ATOM_COUNT>
0

> <PUBCHEM_COMPONENT_COUNT>
1

> <PUBCHEM_CACTVS_TAUTO_COUNT>
21

> <PUBCHEM_CONFORMER_ID>
02F859DC00000004

> <PUBCHEM_MMFF94_ENERGY>
111.3396

> <PUBCHEM_FEATURE_SELFOVERLAP>
61.011

> <PUBCHEM_SHAPE_FINGERPRINT>
10076449 9 18114183000072513672
10429389 143 8142086464167487409
10533779 47 14692578689504818460
11463208 3 18413390925394888855
11607047 74 17898575530044542333
12013929 94 18410573976566797811
12498461 61 17632291312094617975
12559415 141 18131638876814139358
13008946 119 12247679362104677245
13553643 46 12031785855749455771
14202775 3 18412829083637916823
14395042 24 13398633870025973955
15065858 18 18412257333175011521
15247644 1 18411982455289504278
20105231 36 18411138030321539427
21362267 313 9799421001565698500
21792961 116 17704065167486809513
232437 2 18202562865493390856
23576562 1 15141256494051180007
306946 40 9799694801177076183
335352 9 16226045600543294561
44389302 135 16988843886856398383
4516262 110 12324241655339703496
5028188 123 18041277682601251893
54039377 194 17988639679790998168
636775 8 18260546737035172021

> <PUBCHEM_SHAPE_MULTIPOLES>
764.83
54.39
3.07
1.52
27.84
3.28
-0.12
63.8
-5.34
0.12
-0.13
1.63
-0.68
3.5

> <PUBCHEM_SHAPE_SELFOVERLAP>
1625.113

> <PUBCHEM_SHAPE_VOLUME>
428.6

> <PUBCHEM_COORDINATE_TYPE>
2
5
10

$$$$
49830357
  -OEChem-05102415033D

 52 55  0     0  0  0  0  0  0999 V2000
    4.9676    0.4775   -2.0741 S   0  0  0  0  0  0  0  0  0  0  0  0
   -7.3280    2.2183    0.9079 F   0  0  0  0  0  0  0  0  0  0  0  0
    7.6438   -0.7079   -1.4808 O   0  0  0  0  0  0  0  0  0  0  0  0
   -3.6493   -0.9456   -0.5136 O   0  0  0  0  0  0  0  0  0  0  0  0
    4.7042   -0.7720    2.2192 N   0  0  0  0  0  0  0  0  0  0  0  0
   -2.7626    1.1471    0.0551 N   0  0  0  0  0  0  0  0  0  0  0  0
    2.3787   -0.3537    2.1527 N   0  0  0  0  0  0  0  0  0  0  0  0
    8.5506   -0.2855    0.6112 N   0  0  0  0  0  0  0  0  0  0  0  0
   -5.0409    0.7941    0.1978 N   0  0  0  0  0  0  0  0  0  0  0  0
    3.7501    0.0127    0.1587 C   0  0  0  0  0  0  0  0  0  0  0  0
    2.7606    0.4645   -0.7774 C   0  0  0  0  0  0  0  0  0  0  0  0
    5.0185   -0.0278   -0.4270 C   0  0  0  0  0  0  0  0  0  0  0  0
    1.3448    0.6395   -0.5648 C   0  0  0  0  0  0  0  0  0  0  0  0
    6.1421   -0.4392    0.2999 C   0  0  0  0  0  0  0  0  0  0  0  0
    3.2856    0.7481   -2.0159 C   0  0  0  0  0  0  0  0  0  0  0  0
    3.6294   -0.3723    1.5034 C   0  0  0  0  0  0  0  0  0  0  0  0
    0.4673   -0.4179   -0.8051 C   0  0  0  0  0  0  0  0  0  0  0  0
    0.8531    1.8660   -0.1179 C   0  0  0  0  0  0  0  0  0  0  0  0
   -1.3934    0.9779   -0.1523 C   0  0  0  0  0  0  0  0  0  0  0  0
    5.9089   -0.7963    1.6164 C   0  0  0  0  0  0  0  0  0  0  0  0
   -0.9017   -0.2487   -0.5990 C   0  0  0  0  0  0  0  0  0  0  0  0
   -0.5159    2.0353    0.0882 C   0  0  0  0  0  0  0  0  0  0  0  0
    7.4776   -0.4977   -0.2645 C   0  0  0  0  0  0  0  0  0  0  0  0
   -6.3251    0.2018    0.1526 C   0  0  0  0  0  0  0  0  0  0  0  0
   -3.8070    0.2082   -0.1276 C   0  0  0  0  0  0  0  0  0  0  0  0
   -7.7298   -1.7110   -0.2995 C   0  0  0  0  0  0  0  0  0  0  0  0
   -6.4649   -1.1248   -0.2546 C   0  0  0  0  0  0  0  0  0  0  0  0
   -7.4502    0.9423    0.5152 C   0  0  0  0  0  0  0  0  0  0  0  0
   -8.8549   -0.9705    0.0632 C   0  0  0  0  0  0  0  0  0  0  0  0
   -8.7152    0.3560    0.4705 C   0  0  0  0  0  0  0  0  0  0  0  0
    9.9355   -0.2890    0.1975 C   0  0  0  0  0  0  0  0  0  0  0  0
   -7.8800   -3.1296   -0.7353 C   0  0  0  0  0  0  0  0  0  0  0  0
    2.7687    1.1021   -2.8981 H   0  0  0  0  0  0  0  0  0  0  0  0
    0.8359   -1.3805   -1.1523 H   0  0  0  0  0  0  0  0  0  0  0  0
    1.5238    2.6999    0.0757 H   0  0  0  0  0  0  0  0  0  0  0  0
    6.7015   -1.1554    2.2660 H   0  0  0  0  0  0  0  0  0  0  0  0
   -1.5142   -1.1143   -0.8071 H   0  0  0  0  0  0  0  0  0  0  0  0
   -0.8851    2.9963    0.4371 H   0  0  0  0  0  0  0  0  0  0  0  0
   -3.0446    2.0683    0.3810 H   0  0  0  0  0  0  0  0  0  0  0  0
    2.3467   -0.6406    3.1226 H   0  0  0  0  0  0  0  0  0  0  0  0
    1.5255   -0.0711    1.7020 H   0  0  0  0  0  0  0  0  0  0  0  0
    8.3693   -0.0417    1.5794 H   0  0  0  0  0  0  0  0  0  0  0  0
   -5.0216    1.7633    0.5049 H   0  0  0  0  0  0  0  0  0  0  0  0
   -5.6376   -1.7557   -0.5469 H   0  0  0  0  0  0  0  0  0  0  0  0
   -9.8464   -1.4144    0.0346 H   0  0  0  0  0  0  0  0  0  0  0  0
   -9.5908    0.9328    0.7532 H   0  0  0  0  0  0  0  0  0  0  0  0
   10.5460   -0.6396    1.0328 H   0  0  0  0  0  0  0  0  0  0  0  0
   10.2183    0.7341   -0.0622 H   0  0  0  0  0  0  0  0  0  0  0  0
   10.0754   -0.9397   -0.6691 H   0  0  0  0  0  0  0  0  0  0  0  0
   -7.3024   -3.3159   -1.6470 H   0  0  0  0  0  0  0  0  0  0  0  0
   -7.5298   -3.8043    0.0523 H   0  0  0  0  0  0  0  0  0  0  0  0
   -8.9236   -3.3767   -0.9576 H   0  0  0  0  0  0  0  0  0  0  0  0
  1 12  1  0  0  0  0
  1 15  1  0  0  0  0
  2 28  1  0  0  0  0
  3 23  2  0  0  0  0
  4 25  2  0  0  0  0
  5 16  2  0  0  0  0
  5 20  1  0  0  0  0
  6 19  1  0  0  0  0
  6 25  1  0  0  0  0
  6 39  1  0  0  0  0
  7 16  1  0  0  0  0
  7 40  1  0  0  0  0
  7 41  1  0  0  0  0
  8 23  1  0  0  0  0
  8 31  1  0  0  0  0
  8 42  1  0  0  0  0
  9 24  1  0  0  0  0
  9 25  1  0  0  0  0
  9 43  1  0  0  0  0
 10 11  1  0  0  0  0
 10 12  2  0  0  0  0
 10 16  1  0  0  0  0
 11 13  1  0  0  0  0
 11 15  2  0  0  0  0
 12 14  1  0  0  0  0
 13 17  2  0  0  0  0
 13 18  1  0  0  0  0
 14 20  2  0  0  0  0
 14 23  1  0  0  0  0
 15 33  1  0  0  0  0
 17 21  1  0  0  0  0
 17 34  1  0  0  0  0
 18 22  2  0  0  0  0
 18 35  1  0  0  0  0
 19 21  2  0  0  0  0
 19 22  1  0  0  0  0
 20 36  1  0  0  0  0
 21 37  1  0  0  0  0
 22 38  1  0  0  0  0
 24 27  1  0  0  0  0
 24 28  2  0  0  0  0
 26 27  2  0  0  0  0
 26 29  1  0  0  0  0
 26 32  1  0  0  0  0
 27 44  1  0  0  0  0
 28 30  1  0  0  0  0
 29 30  2  0  0  0  0
 29 45  1  0  0  0  0
 30 46  1  0  0  0  0
 31 47  1  0  0  0  0
 31 48  1  0  0  0  0
 31 49  1  0  0  0  0
 32 50  1  0  0  0  0
 32 51  1  0  0  0  0
 32 52  1  0  0  0  0
M  END
> <PUBCHEM_COMPOUND_CID>
49830357

> <PUBCHEM_CONFORMER_RMSD>
1

> <PUBCHEM_CONFORMER_DIVERSEORDER>
1
23
26
10
6
22
8
11
2
9
13
17
24
16
21
20
3
15
27
18
5
25
7
4
12
14
19

> <PUBCHEM_MMFF94_PARTIAL_CHARGES>
45
1 -0.08
11 -0.05
12 0.04
13 0.05
14 0.09
15 -0.11
16 0.41
17 -0.15
18 -0.15
19 0.12
2 -0.19
20 0.16
21 -0.15
22 -0.15
23 0.54
24 0.12
25 0.69
26 -0.14
27 -0.15
28 0.19
29 -0.15
3 -0.57
30 -0.15
31 0.3
32 0.14
33 0.15
34 0.15
35 0.15
36 0.15
37 0.15
38 0.15
39 0.37
4 -0.57
40 0.4
41 0.4
42 0.37
43 0.37
44 0.15
45 0.15
46 0.15
5 -0.62
6 -0.55
7 -0.9
8 -0.73
9 -0.55

> <PUBCHEM_EFFECTIVE_ROTOR_COUNT>
7

> <PUBCHEM_PHARMACOPHORE_FEATURES>
11
1 3 acceptor
1 4 acceptor
1 6 donor
1 7 donor
1 8 donor
1 9 donor
3 5 7 16 cation
5 1 10 11 12 15 rings
6 13 17 18 19 21 22 rings
6 24 26 27 28 29 30 rings
6 5 10 12 14 16 20 rings

> <PUBCHEM_HEAVY_ATOM_COUNT>
32

> <PUBCHEM_ATOM_DEF_STEREO_COUNT>
0

> <PUBCHEM_ATOM_UDEF_STEREO_COUNT>
0

> <PUBCHEM_BOND_DEF_STEREO_COUNT>
0

> <PUBCHEM_BOND_UDEF_STEREO_COUNT>
0

> <PUBCHEM_ISOTOPIC_ATOM_COUNT>
0

> <PUBCHEM_COMPONENT_COUNT>
1

> <PUBCHEM_CACTVS_TAUTO_COUNT>
21

> <PUBCHEM_CONFORMER_ID>
02F859D500000001

> <PUBCHEM_MMFF94_ENERGY>
101.2189

> <PUBCHEM_FEATURE_SELFOVERLAP>
55.936

> <PUBCHEM_SHAPE_FINGERPRINT>
10 15 16630525133148546845
10299344 5 18040155115424831139
10533779 47 16271941405787424911
106641 1 18273212011217268824
11135609 127 11314608528003814382
11456790 92 15698001795682738866
11607047 74 18267028426991196020
12089408 11 18333735719310006132
12236239 1 18040998394010437732
12592606 108 18334012813478304675
12741549 16 17203607065531404424
14068700 675 18410016546549374021
14118638 360 15936680489457197189
14150022 121 16988288581934474545
14251764 18 17967814946634853155
15119646 104 18040151791072944395
15183329 4 16877657972762982529
15198563 99 14562800020231942871
15247644 1 17821449071570020067
15301273 46 17775566420581095700
15328684 2 18189331269492918961
15419008 47 17203608160299860337
15419008 91 17846204541514945753
15510794 2 17632863009767266807
15840311 113 18334577976068053036
19315958 150 16200436875283535462
20105231 36 18131635565652264374
21150785 3 14129060309413577853
21792961 116 14996278106741081612
22002106 203 17345462882125266103
22224240 67 16056879130960383581
22956985 138 17977666407680710422
23081809 10 18040721381399272125
232437 2 18335702728933459214
23522609 53 18042995145692300445
23576562 1 8934128457139648371
249057 3 16153714244909656570
3178227 256 15841548570938484766
335352 9 16660650648908391118
3383291 50 18059857320566840055
3411729 13 18056471979703990080
3633792 109 16370722613006108797
397830 11 16629954564587936431
4098825 35 16515677811212952189
44389302 135 18336820889304714010
5219985 9 18040997341105595301
59682541 35 17561361794556681792
9962374 69 18409445929308273860

> <PUBCHEM_SHAPE_MULTIPOLES>
618.48
32.17
1.72
1.51
20.35
0.24
0.08
12.23
1.35
3.71
-0.1
-2.48
0.18
-3

> <PUBCHEM_SHAPE_SELFOVERLAP>
1350.249

> <PUBCHEM_SHAPE_VOLUME>
340.5

> <PUBCHEM_COORDINATE_TYPE>
2
5
10

$$$$
18451372
  -OEChem-05102415033D

 42 45  0     0  0  0  0  0  0999 V2000
   -5.9142   -1.4915   -1.6245 S   0  0  0  0  0  0  0  0  0  0  0  0
    7.0434    1.7757   -2.0370 F   0  0  0  0  0  0  0  0  0  0  0  0
    2.7275    0.3677   -0.8571 O   0  0  0  0  0  0  0  0  0  0  0  0
    1.7321   -0.9345    0.8170 N   0  0  0  0  0  0  0  0  0  0  0  0
   -5.6823    2.0836    1.0637 N   0  0  0  0  0  0  0  0  0  0  0  0
   -3.3760    1.6567    1.3592 N   0  0  0  0  0  0  0  0  0  0  0  0
    4.0213   -0.6265    0.8182 N   0  0  0  0  0  0  0  0  0  0  0  0
   -3.7349   -0.7509   -0.5043 C   0  0  0  0  0  0  0  0  0  0  0  0
   -4.7221    0.1955   -0.0700 C   0  0  0  0  0  0  0  0  0  0  0  0
   -2.3337   -0.7979   -0.1656 C   0  0  0  0  0  0  0  0  0  0  0  0
   -5.9757   -0.0956   -0.6151 C   0  0  0  0  0  0  0  0  0  0  0  0
   -4.2469   -1.7107   -1.3447 C   0  0  0  0  0  0  0  0  0  0  0  0
   -4.6117    1.3094    0.7775 C   0  0  0  0  0  0  0  0  0  0  0  0
   -1.4025   -0.1221   -0.9542 C   0  0  0  0  0  0  0  0  0  0  0  0
   -1.9097   -1.5191    0.9505 C   0  0  0  0  0  0  0  0  0  0  0  0
    0.3767   -0.8889    0.4894 C   0  0  0  0  0  0  0  0  0  0  0  0
   -0.0474   -0.1675   -0.6265 C   0  0  0  0  0  0  0  0  0  0  0  0
   -0.5545   -1.5648    1.2781 C   0  0  0  0  0  0  0  0  0  0  0  0
   -7.0946    0.6957   -0.3293 C   0  0  0  0  0  0  0  0  0  0  0  0
   -6.8724    1.7677    0.5172 C   0  0  0  0  0  0  0  0  0  0  0  0
    2.8230   -0.3234    0.1520 C   0  0  0  0  0  0  0  0  0  0  0  0
    5.3328   -0.2150    0.4821 C   0  0  0  0  0  0  0  0  0  0  0  0
    5.5457    0.5937   -0.6343 C   0  0  0  0  0  0  0  0  0  0  0  0
    6.4129   -0.6184    1.2673 C   0  0  0  0  0  0  0  0  0  0  0  0
    6.8387    0.9990   -0.9653 C   0  0  0  0  0  0  0  0  0  0  0  0
    7.7058   -0.2133    0.9360 C   0  0  0  0  0  0  0  0  0  0  0  0
    7.9187    0.5954   -0.1803 C   0  0  0  0  0  0  0  0  0  0  0  0
   -3.7287   -2.5366   -1.8139 H   0  0  0  0  0  0  0  0  0  0  0  0
   -1.7177    0.4456   -1.8267 H   0  0  0  0  0  0  0  0  0  0  0  0
   -2.6228   -2.0504    1.5765 H   0  0  0  0  0  0  0  0  0  0  0  0
    0.6093    0.3818   -1.2857 H   0  0  0  0  0  0  0  0  0  0  0  0
   -0.2383   -2.1305    2.1509 H   0  0  0  0  0  0  0  0  0  0  0  0
   -8.0743    0.4863   -0.7420 H   0  0  0  0  0  0  0  0  0  0  0  0
   -7.6894    2.4296    0.7878 H   0  0  0  0  0  0  0  0  0  0  0  0
    1.9636   -1.4800    1.6435 H   0  0  0  0  0  0  0  0  0  0  0  0
   -2.5268    1.1415    1.2035 H   0  0  0  0  0  0  0  0  0  0  0  0
   -3.3506    2.4689    1.9623 H   0  0  0  0  0  0  0  0  0  0  0  0
    3.9480   -1.2138    1.6451 H   0  0  0  0  0  0  0  0  0  0  0  0
    4.7644    0.9479   -1.2911 H   0  0  0  0  0  0  0  0  0  0  0  0
    6.2608   -1.2487    2.1398 H   0  0  0  0  0  0  0  0  0  0  0  0
    8.5468   -0.5275    1.5472 H   0  0  0  0  0  0  0  0  0  0  0  0
    8.9252    0.9111   -0.4384 H   0  0  0  0  0  0  0  0  0  0  0  0
  1 11  1  0  0  0  0
  1 12  1  0  0  0  0
  2 25  1  0  0  0  0
  3 21  2  0  0  0  0
  4 16  1  0  0  0  0
  4 21  1  0  0  0  0
  4 35  1  0  0  0  0
  5 13  2  0  0  0  0
  5 20  1  0  0  0  0
  6 13  1  0  0  0  0
  6 36  1  0  0  0  0
  6 37  1  0  0  0  0
  7 21  1  0  0  0  0
  7 22  1  0  0  0  0
  7 38  1  0  0  0  0
  8  9  1  0  0  0  0
  8 10  1  0  0  0  0
  8 12  2  0  0  0  0
  9 11  2  0  0  0  0
  9 13  1  0  0  0  0
 10 14  2  0  0  0  0
 10 15  1  0  0  0  0
 11 19  1  0  0  0  0
 12 28  1  0  0  0  0
 14 17  1  0  0  0  0
 14 29  1  0  0  0  0
 15 18  2  0  0  0  0
 15 30  1  0  0  0  0
 16 17  2  0  0  0  0
 16 18  1  0  0  0  0
 17 31  1  0  0  0  0
 18 32  1  0  0  0  0
 19 20  2  0  0  0  0
 19 33  1  0  0  0  0
 20 34  1  0  0  0  0
 22 23  2  0  0  0  0
 22 24  1  0  0  0  0
 23 25  1  0  0  0  0
 23 39  1  0  0  0  0
 24 26  2  0  0  0  0
 24 40  1  0  0  0  0
 25 27  2  0  0  0  0
 26 27  1  0  0  0  0
 26 41  1  0  0  0  0
 27 42  1  0  0  0  0
M  END
> <PUBCHEM_COMPOUND_CID>
18451372

> <PUBCHEM_CONFORMER_RMSD>
0.8

> <PUBCHEM_CONFORMER_DIVERSEORDER>
1
13
27
19
7
12
20
11
28
24
14
22
15
18
4
5
17
25
8
3
16
9
21
10
26
6
23
2

> <PUBCHEM_MMFF94_PARTIAL_CHARGES>
41
1 -0.08
10 0.05
11 0.04
12 -0.11
13 0.41
14 -0.15
15 -0.15
16 0.12
17 -0.15
18 -0.15
19 -0.15
2 -0.19
20 0.16
21 0.69
22 0.12
23 -0.15
24 -0.15
25 0.19
26 -0.15
27 -0.15
28 0.15
29 0.15
3 -0.57
30 0.15
31 0.15
32 0.15
33 0.15
34 0.15
35 0.37
36 0.4
37 0.4
38 0.37
39 0.15
4 -0.55
40 0.15
41 0.15
42 0.15
5 -0.62
6 -0.9
7 -0.55
8 -0.05

> <PUBCHEM_EFFECTIVE_ROTOR_COUNT>
5

> <PUBCHEM_PHARMACOPHORE_FEATURES>
9
1 3 acceptor
1 4 donor
1 6 donor
1 7 donor
3 5 6 13 cation
5 1 8 9 11 12 rings
6 10 14 15 16 17 18 rings
6 22 23 24 25 26 27 rings
6 5 9 11 13 19 20 rings

> <PUBCHEM_HEAVY_ATOM_COUNT>
27

> <PUBCHEM_ATOM_DEF_STEREO_COUNT>
0

> <PUBCHEM_ATOM_UDEF_STEREO_COUNT>
0

> <PUBCHEM_BOND_DEF_STEREO_COUNT>
0

> <PUBCHEM_BOND_UDEF_STEREO_COUNT>
0

> <PUBCHEM_ISOTOPIC_ATOM_COUNT>
0

> <PUBCHEM_COMPONENT_COUNT>
1

> <PUBCHEM_CACTVS_TAUTO_COUNT>
6

> <PUBCHEM_CONFORMER_ID>
01198BAC00000001

> <PUBCHEM_MMFF94_ENERGY>
86.1921

> <PUBCHEM_FEATURE_SELFOVERLAP>
45.785

> <PUBCHEM_SHAPE_FINGERPRINT>
10 15 15213021570392770182
10076449 9 17060337449284151443
10087517 78 18411981326087359309
10299344 5 18408037416611886070
10391435 84 14045444675336610326
10411042 1 17699552943966009879
10638233 991 18335421309343223076
106641 1 17385730201599314267
10730089 173 18131348597016359689
10906281 52 18260559921967988502
11315181 36 18334573573262058255
11991303 11 15482098483626803860
12082328 90 18202560696134318087
12091667 2 18273493494520377799
12236239 1 18409162187116552619
13668630 136 14261346968630397613
13782708 43 11095892553539444038
13914758 101 18202846539419523658
14251764 18 18333730234214710791
14849402 71 18041566943588948229
14856354 85 18130222765913877535
150020 25 16487254361534441640
15183329 4 18131072636545561432
15198563 99 15482683337902593312
15276724 80 18113333111912294588
15348495 7 14562824291012314884
15419008 47 16486968492721681632
15419008 91 16701720714634252904
15461852 350 18131070467159958575
1577012 14 18408882923478150850
15849732 13 16487251093096042572
16989713 51 16987704870409597527
195137 175 18335704961978908220
20281389 69 17240197738323621198
21150785 3 15769772451027960896
21756936 100 18408324376789491203
21792961 116 16343987996255951942
22224240 67 16805042913112704283
23081809 10 18409722967911165866
23198884 109 18342175574401040730
23522609 53 18334872610107289620
23559900 14 17896314899518639044
23576562 1 18055914548930594188
249057 3 17703784856049823933
3178227 256 16153430532476576264
328310 630 17967820482810768420
394071 54 17530685403479002294
397830 11 14274033172588917940
4073 2 18410295813137479882
4339292 15 16701160024319445791
44555599 121 18333735736627532052
445580 204 18413109442064996921
445580 37 18060143132673788585
44880568 143 17203894062976344384
5104073 3 17313948649225243240
5265222 85 17488172880205461310
5364581 5 14274320170450427582
54039377 194 10519686918542462965
5758199 1 18260546714532006098
59682541 35 16081376258585648513
5969126 39 12751242484638206515
59755656 215 16415482640693640062
59755656 520 17967529086565683739
6328613 192 18186805820211647252

> <PUBCHEM_SHAPE_MULTIPOLES>
526.43
24.98
1.71
1.42
30.08
0.39
-0.22
8.74
-4.02
-3.32
0.1
1.11
-0.04
-3

> <PUBCHEM_SHAPE_SELFOVERLAP>
1157.358

> <PUBCHEM_SHAPE_VOLUME>
287.1

> <PUBCHEM_COORDINATE_TYPE>
2
5
10

$$$$
18451374
  -OEChem-05102415043D

 45 48  0     0  0  0  0  0  0999 V2000
   -6.0142    2.0209    0.7787 S   0  0  0  0  0  0  0  0  0  0  0  0
    2.5993   -0.0590    1.2339 O   0  0  0  0  0  0  0  0  0  0  0  0
    1.7159    0.5066   -0.8611 N   0  0  0  0  0  0  0  0  0  0  0  0
   -5.7596   -2.3151   -0.3150 N   0  0  0  0  0  0  0  0  0  0  0  0
   -3.4315   -2.0531   -0.6314 N   0  0  0  0  0  0  0  0  0  0  0  0
    3.9937    0.2036   -0.6251 N   0  0  0  0  0  0  0  0  0  0  0  0
   -3.8078    0.8890    0.1436 C   0  0  0  0  0  0  0  0  0  0  0  0
   -4.8000   -0.1438    0.0552 C   0  0  0  0  0  0  0  0  0  0  0  0
   -2.3920    0.7909   -0.1140 C   0  0  0  0  0  0  0  0  0  0  0  0
   -6.0684    0.3446    0.3809 C   0  0  0  0  0  0  0  0  0  0  0  0
   -4.3306    2.1023    0.5233 C   0  0  0  0  0  0  0  0  0  0  0  0
   -1.5160    0.4632    0.9208 C   0  0  0  0  0  0  0  0  0  0  0  0
   -1.8989    1.0237   -1.3978 C   0  0  0  0  0  0  0  0  0  0  0  0
   -4.6822   -1.4988   -0.2927 C   0  0  0  0  0  0  0  0  0  0  0  0
    0.3465    0.6013   -0.6120 C   0  0  0  0  0  0  0  0  0  0  0  0
   -0.1468    0.3683    0.6717 C   0  0  0  0  0  0  0  0  0  0  0  0
   -0.5296    0.9291   -1.6469 C   0  0  0  0  0  0  0  0  0  0  0  0
   -7.1945   -0.4869    0.3631 C   0  0  0  0  0  0  0  0  0  0  0  0
   -6.9639   -1.8037    0.0058 C   0  0  0  0  0  0  0  0  0  0  0  0
    5.2770   -0.0572   -0.0892 C   0  0  0  0  0  0  0  0  0  0  0  0
    2.7588    0.1898    0.0432 C   0  0  0  0  0  0  0  0  0  0  0  0
    7.6670   -0.2529   -0.3827 C   0  0  0  0  0  0  0  0  0  0  0  0
    6.4022    0.0045   -0.9113 C   0  0  0  0  0  0  0  0  0  0  0  0
    5.4167   -0.3759    1.2616 C   0  0  0  0  0  0  0  0  0  0  0  0
    7.8067   -0.5718    0.9681 C   0  0  0  0  0  0  0  0  0  0  0  0
    6.6816   -0.6331    1.7903 C   0  0  0  0  0  0  0  0  0  0  0  0
    8.8706   -0.1864   -1.2610 C   0  0  0  0  0  0  0  0  0  0  0  0
   -3.8116    3.0410    0.6656 H   0  0  0  0  0  0  0  0  0  0  0  0
   -1.8855    0.2775    1.9268 H   0  0  0  0  0  0  0  0  0  0  0  0
   -2.5684    1.2788   -2.2160 H   0  0  0  0  0  0  0  0  0  0  0  0
    0.4643    0.1099    1.5245 H   0  0  0  0  0  0  0  0  0  0  0  0
   -0.1592    1.1127   -2.6523 H   0  0  0  0  0  0  0  0  0  0  0  0
   -8.1857   -0.1270    0.6123 H   0  0  0  0  0  0  0  0  0  0  0  0
    1.9992    0.6900   -1.8205 H   0  0  0  0  0  0  0  0  0  0  0  0
   -7.7857   -2.5123   -0.0320 H   0  0  0  0  0  0  0  0  0  0  0  0
    6.2943    0.2514   -1.9652 H   0  0  0  0  0  0  0  0  0  0  0  0
    3.9735    0.4283   -1.6166 H   0  0  0  0  0  0  0  0  0  0  0  0
   -2.5764   -1.5244   -0.6416 H   0  0  0  0  0  0  0  0  0  0  0  0
   -3.4013   -3.0350   -0.8743 H   0  0  0  0  0  0  0  0  0  0  0  0
    4.5969   -0.4439    1.9622 H   0  0  0  0  0  0  0  0  0  0  0  0
    8.7865   -0.7761    1.3917 H   0  0  0  0  0  0  0  0  0  0  0  0
    6.7917   -0.8820    2.8419 H   0  0  0  0  0  0  0  0  0  0  0  0
    9.0440   -1.1577   -1.7348 H   0  0  0  0  0  0  0  0  0  0  0  0
    8.7459    0.5697   -2.0436 H   0  0  0  0  0  0  0  0  0  0  0  0
    9.7637    0.0888   -0.6897 H   0  0  0  0  0  0  0  0  0  0  0  0
  1 10  1  0  0  0  0
  1 11  1  0  0  0  0
  2 21  2  0  0  0  0
  3 15  1  0  0  0  0
  3 21  1  0  0  0  0
  3 34  1  0  0  0  0
  4 14  2  0  0  0  0
  4 19  1  0  0  0  0
  5 14  1  0  0  0  0
  5 38  1  0  0  0  0
  5 39  1  0  0  0  0
  6 20  1  0  0  0  0
  6 21  1  0  0  0  0
  6 37  1  0  0  0  0
  7  8  1  0  0  0  0
  7  9  1  0  0  0  0
  7 11  2  0  0  0  0
  8 10  2  0  0  0  0
  8 14  1  0  0  0  0
  9 12  2  0  0  0  0
  9 13  1  0  0  0  0
 10 18  1  0  0  0  0
 11 28  1  0  0  0  0
 12 16  1  0  0  0  0
 12 29  1  0  0  0  0
 13 17  2  0  0  0  0
 13 30  1  0  0  0  0
 15 16  2  0  0  0  0
 15 17  1  0  0  0  0
 16 31  1  0  0  0  0
 17 32  1  0  0  0  0
 18 19  2  0  0  0  0
 18 33  1  0  0  0  0
 19 35  1  0  0  0  0
 20 23  1  0  0  0  0
 20 24  2  0  0  0  0
 22 23  2  0  0  0  0
 22 25  1  0  0  0  0
 22 27  1  0  0  0  0
 23 36  1  0  0  0  0
 24 26  1  0  0  0  0
 24 40  1  0  0  0  0
 25 26  2  0  0  0  0
 25 41  1  0  0  0  0
 26 42  1  0  0  0  0
 27 43  1  0  0  0  0
 27 44  1  0  0  0  0
 27 45  1  0  0  0  0
M  END
> <PUBCHEM_COMPOUND_CID>
18451374

> <PUBCHEM_CONFORMER_RMSD>
0.8

> <PUBCHEM_CONFORMER_DIVERSEORDER>
1
16
29
18
7
21
15
26
2
17
11
14
28
8
20
13
12
23
5
30
19
3
25
4
27
6
9
10
24
22

> <PUBCHEM_MMFF94_PARTIAL_CHARGES>
41
1 -0.08
10 0.04
11 -0.11
12 -0.15
13 -0.15
14 0.41
15 0.12
16 -0.15
17 -0.15
18 -0.15
19 0.16
2 -0.57
20 0.12
21 0.69
22 -0.14
23 -0.15
24 -0.15
25 -0.15
26 -0.15
27 0.14
28 0.15
29 0.15
3 -0.55
30 0.15
31 0.15
32 0.15
33 0.15
34 0.37
35 0.15
36 0.15
37 0.37
38 0.4
39 0.4
4 -0.62
40 0.15
41 0.15
42 0.15
5 -0.9
6 -0.55
7 -0.05
9 0.05

> <PUBCHEM_EFFECTIVE_ROTOR_COUNT>
5

> <PUBCHEM_PHARMACOPHORE_FEATURES>
9
1 2 acceptor
1 3 donor
1 5 donor
1 6 donor
3 4 5 14 cation
5 1 7 8 10 11 rings
6 20 22 23 24 25 26 rings
6 4 8 10 14 18 19 rings
6 9 12 13 15 16 17 rings

> <PUBCHEM_HEAVY_ATOM_COUNT>
27

> <PUBCHEM_ATOM_DEF_STEREO_COUNT>
0

> <PUBCHEM_ATOM_UDEF_STEREO_COUNT>
0

> <PUBCHEM_BOND_DEF_STEREO_COUNT>
0

> <PUBCHEM_BOND_UDEF_STEREO_COUNT>
0

> <PUBCHEM_ISOTOPIC_ATOM_COUNT>
0

> <PUBCHEM_COMPONENT_COUNT>
1

> <PUBCHEM_CACTVS_TAUTO_COUNT>
6

> <PUBCHEM_CONFORMER_ID>
01198BAE00000001

> <PUBCHEM_MMFF94_ENERGY>
88.7625

> <PUBCHEM_FEATURE_SELFOVERLAP>
45.785

> <PUBCHEM_SHAPE_FINGERPRINT>
10 15 17346593097703288440
10299344 5 18259987072088179922
10319926 262 18201993344029134017
10391435 84 15791738546384703504
11315181 36 18335422370484825681
11524674 6 17561080328059734335
12089408 11 18259706680012991992
12091667 2 17167865240577706077
12166972 35 18259985994163029036
12236239 1 18113902676125556213
12516196 113 18186237321403228572
13288520 33 18408603678343762789
13885169 127 18272937098159328192
13914758 101 9079118864892148180
14068700 675 18334014999327060428
14251764 18 17967254191673490280
14251764 46 18343585131744937941
14344974 204 17559388270075659311
14556957 393 15430325680635420742
14856354 85 18411983572486546103
15021287 119 17894919529248305701
15119646 104 17821725001564141874
15183329 4 17313100860977171474
15301273 46 17704073976142206988
15348495 7 17417238957218015930
15352257 5 18342458115157752158
15419008 47 17489583446566357152
15419008 91 17988063531540688360
15510794 2 17632582617164298414
15716309 27 17894630331719559504
1577012 14 17894911798280428648
15849732 13 17561362872910477876
17093844 174 17560796624479805785
19611394 137 17489306429406424835
20105231 36 17060345124105808582
20281389 69 14548734002458049106
21150785 3 14996281431467664190
21315759 40 18187086135573457784
21360443 120 17821729424937826010
21792961 116 16917073205524060936
22224240 67 18260829298348568914
23035841 295 18408040719046052355
23081809 10 17967257494181893004
23389318 12 17312823805806644966
23516275 137 18193013529539503954
23522609 53 17896628131558182508
23559900 14 18201716263294635801
23576562 1 14201971219497359583
3178227 256 16487257686018288154
3383291 50 18339926021557605411
397830 11 17702934971994693648
4325135 7 18261112971868623534
437795 51 17346324774175376046
44389302 135 18188479161694638426
4938544 92 18338514124125957637
5104073 3 16916237554479080258
5219985 9 17894349977735121236
54039377 194 17895201064987710803
57527293 21 17129022970003285159
58260988 114 16879090688512726443
5969126 39 16877936127324013221
6691757 9 18342181043239262793
9831232 110 18193275188233208486
9953998 17 17632580453323681051

> <PUBCHEM_SHAPE_MULTIPOLES>
533.7
26.53
1.67
1.31
35.47
0.38
-0.03
7.11
-2.25
-4.65
0.04
1.82
-0.12
-1.36

> <PUBCHEM_SHAPE_SELFOVERLAP>
1168.443

> <PUBCHEM_SHAPE_VOLUME>
290.4

> <PUBCHEM_COORDINATE_TYPE>
2
5
10

$$$$
18450541
  -OEChem-05102415043D

 42 45  0     0  0  0  0  0  0999 V2000
    9.0534   -0.1684    1.3675 Cl  0  0  0  0  0  0  0  0  0  0  0  0
   -6.0213    2.0186   -0.7805 S   0  0  0  0  0  0  0  0  0  0  0  0
    2.5883   -0.0692   -1.2421 O   0  0  0  0  0  0  0  0  0  0  0  0
    1.7112    0.5089    0.8521 N   0  0  0  0  0  0  0  0  0  0  0  0
   -5.7655   -2.3135    0.3287 N   0  0  0  0  0  0  0  0  0  0  0  0
   -3.4380   -2.0507    0.6452 N   0  0  0  0  0  0  0  0  0  0  0  0
    3.9882    0.2049    0.6112 N   0  0  0  0  0  0  0  0  0  0  0  0
   -3.8148    0.8897   -0.1404 C   0  0  0  0  0  0  0  0  0  0  0  0
   -4.8067   -0.1432   -0.0487 C   0  0  0  0  0  0  0  0  0  0  0  0
   -2.3984    0.7922    0.1143 C   0  0  0  0  0  0  0  0  0  0  0  0
   -6.0751    0.3437   -0.3768 C   0  0  0  0  0  0  0  0  0  0  0  0
   -4.3380    2.1015   -0.5246 C   0  0  0  0  0  0  0  0  0  0  0  0
   -4.6884   -1.4968    0.3043 C   0  0  0  0  0  0  0  0  0  0  0  0
   -1.9018    1.0308    1.3959 C   0  0  0  0  0  0  0  0  0  0  0  0
   -1.5254    0.4583   -0.9211 C   0  0  0  0  0  0  0  0  0  0  0  0
    0.3409    0.6018    0.6065 C   0  0  0  0  0  0  0  0  0  0  0  0
   -0.5323    0.9355    1.6419 C   0  0  0  0  0  0  0  0  0  0  0  0
   -0.1557    0.3631   -0.6750 C   0  0  0  0  0  0  0  0  0  0  0  0
   -7.2009   -0.4882   -0.3567 C   0  0  0  0  0  0  0  0  0  0  0  0
   -6.9699   -1.8037    0.0053 C   0  0  0  0  0  0  0  0  0  0  0  0
    2.7514    0.1869   -0.0533 C   0  0  0  0  0  0  0  0  0  0  0  0
    5.2699   -0.0588    0.0730 C   0  0  0  0  0  0  0  0  0  0  0  0
    6.3980    0.0073    0.8910 C   0  0  0  0  0  0  0  0  0  0  0  0
    5.4052   -0.3833   -1.2768 C   0  0  0  0  0  0  0  0  0  0  0  0
    7.6613   -0.2508    0.3589 C   0  0  0  0  0  0  0  0  0  0  0  0
    6.6683   -0.6415   -1.8088 C   0  0  0  0  0  0  0  0  0  0  0  0
    7.7964   -0.5752   -0.9910 C   0  0  0  0  0  0  0  0  0  0  0  0
   -3.8191    3.0397   -0.6708 H   0  0  0  0  0  0  0  0  0  0  0  0
   -2.5691    1.2907    2.2143 H   0  0  0  0  0  0  0  0  0  0  0  0
   -1.8978    0.2680   -1.9252 H   0  0  0  0  0  0  0  0  0  0  0  0
   -0.1591    1.1241    2.6454 H   0  0  0  0  0  0  0  0  0  0  0  0
    0.4531    0.1001   -1.5281 H   0  0  0  0  0  0  0  0  0  0  0  0
   -8.1921   -0.1296   -0.6077 H   0  0  0  0  0  0  0  0  0  0  0  0
   -7.7913   -2.5125    0.0451 H   0  0  0  0  0  0  0  0  0  0  0  0
    1.9971    0.6978    1.8097 H   0  0  0  0  0  0  0  0  0  0  0  0
   -2.5828   -1.5219    0.6542 H   0  0  0  0  0  0  0  0  0  0  0  0
   -3.4082   -3.0319    0.8910 H   0  0  0  0  0  0  0  0  0  0  0  0
    3.9708    0.4348    1.6015 H   0  0  0  0  0  0  0  0  0  0  0  0
    6.2913    0.2608    1.9436 H   0  0  0  0  0  0  0  0  0  0  0  0
    4.5832   -0.4547   -1.9744 H   0  0  0  0  0  0  0  0  0  0  0  0
    6.7750   -0.8942   -2.8599 H   0  0  0  0  0  0  0  0  0  0  0  0
    8.7745   -0.7787   -1.4195 H   0  0  0  0  0  0  0  0  0  0  0  0
  1 25  1  0  0  0  0
  2 11  1  0  0  0  0
  2 12  1  0  0  0  0
  3 21  2  0  0  0  0
  4 16  1  0  0  0  0
  4 21  1  0  0  0  0
  4 35  1  0  0  0  0
  5 13  2  0  0  0  0
  5 20  1  0  0  0  0
  6 13  1  0  0  0  0
  6 36  1  0  0  0  0
  6 37  1  0  0  0  0
  7 21  1  0  0  0  0
  7 22  1  0  0  0  0
  7 38  1  0  0  0  0
  8  9  1  0  0  0  0
  8 10  1  0  0  0  0
  8 12  2  0  0  0  0
  9 11  2  0  0  0  0
  9 13  1  0  0  0  0
 10 14  2  0  0  0  0
 10 15  1  0  0  0  0
 11 19  1  0  0  0  0
 12 28  1  0  0  0  0
 14 17  1  0  0  0  0
 14 29  1  0  0  0  0
 15 18  2  0  0  0  0
 15 30  1  0  0  0  0
 16 17  2  0  0  0  0
 16 18  1  0  0  0  0
 17 31  1  0  0  0  0
 18 32  1  0  0  0  0
 19 20  2  0  0  0  0
 19 33  1  0  0  0  0
 20 34  1  0  0  0  0
 22 23  2  0  0  0  0
 22 24  1  0  0  0  0
 23 25  1  0  0  0  0
 23 39  1  0  0  0  0
 24 26  2  0  0  0  0
 24 40  1  0  0  0  0
 25 27  2  0  0  0  0
 26 27  1  0  0  0  0
 26 41  1  0  0  0  0
 27 42  1  0  0  0  0
M  END
> <PUBCHEM_COMPOUND_CID>
18450541

> <PUBCHEM_CONFORMER_RMSD>
0.8

> <PUBCHEM_CONFORMER_DIVERSEORDER>
2
15
25
17
21
5
14
8
18
28
16
11
30
26
13
1
12
7
20
23
19
29
3
4
6
27
9
10
22
24

> <PUBCHEM_MMFF94_PARTIAL_CHARGES>
41
1 -0.18
10 0.05
11 0.04
12 -0.11
13 0.41
14 -0.15
15 -0.15
16 0.12
17 -0.15
18 -0.15
19 -0.15
2 -0.08
20 0.16
21 0.69
22 0.12
23 -0.15
24 -0.15
25 0.18
26 -0.15
27 -0.15
28 0.15
29 0.15
3 -0.57
30 0.15
31 0.15
32 0.15
33 0.15
34 0.15
35 0.37
36 0.4
37 0.4
38 0.37
39 0.15
4 -0.55
40 0.15
41 0.15
42 0.15
5 -0.62
6 -0.9
7 -0.55
8 -0.05

> <PUBCHEM_EFFECTIVE_ROTOR_COUNT>
5

> <PUBCHEM_PHARMACOPHORE_FEATURES>
9
1 3 acceptor
1 4 donor
1 6 donor
1 7 donor
3 5 6 13 cation
5 2 8 9 11 12 rings
6 10 14 15 16 17 18 rings
6 22 23 24 25 26 27 rings
6 5 9 11 13 19 20 rings

> <PUBCHEM_HEAVY_ATOM_COUNT>
27

> <PUBCHEM_ATOM_DEF_STEREO_COUNT>
0

> <PUBCHEM_ATOM_UDEF_STEREO_COUNT>
0

> <PUBCHEM_BOND_DEF_STEREO_COUNT>
0

> <PUBCHEM_BOND_UDEF_STEREO_COUNT>
0

> <PUBCHEM_ISOTOPIC_ATOM_COUNT>
0

> <PUBCHEM_COMPONENT_COUNT>
1

> <PUBCHEM_CACTVS_TAUTO_COUNT>
6

> <PUBCHEM_CONFORMER_ID>
0119886D00000002

> <PUBCHEM_MMFF94_ENERGY>
86.9687

> <PUBCHEM_FEATURE_SELFOVERLAP>
45.785

> <PUBCHEM_SHAPE_FINGERPRINT>
10 15 17917705825802591802
10165383 225 18337671898894294801
10299344 5 17676205767019425890
106641 1 15339119074182789463
10674148 151 18341895191406073785
11315181 36 18272934925428207065
11524674 6 17632294597022042919
12082328 90 18410007702483035980
12089408 11 17749390352466112404
12166972 35 18335143119927128388
12236239 1 17240761775009451549
12741549 16 17418094348123250201
13288520 33 18408885153404875901
13668630 136 18272092678125251532
13685833 64 17275387599343766424
13885169 127 18409446964268973120
13911987 19 14273728578167132809
14028597 1 13686029665523643998
14068700 675 17894912927730903204
14251764 18 16950283992911617092
14344974 204 17844243154362808175
14856354 85 18113903779974485919
15119646 104 17313096420197388890
15183329 4 15213016055507237984
15352257 5 18342460322475517286
15419008 47 18131344198606755208
15419008 91 18270380751248542184
15461852 350 18333454236212742180
15510794 2 18202001006815214278
15716309 27 15339120126096238508
1577012 14 17095520664924377081
15849732 13 18273211993758007188
16992828 155 16662042510001717229
17093844 174 17632859703328237969
18335252 114 15068341229235291454
18335252 98 17847064389777365566
18643901 69 18410577310527146959
18681886 176 18334289902834444521
2026 5 18201721747583413935
21150785 3 17603587434709296338
21267235 1 16988849363219014824
21315759 40 17749106665349220232
21360443 120 17167858647697691971
21521721 280 15267054866333075550
21623969 137 17203335502426310022
21792961 116 17988641852632785509
22288116 15 17313111886300775019
23081809 10 17168142321660318272
23198884 109 17313106362830023867
23522609 53 17314531252580525684
23559900 14 18412537735021652657
23576562 1 17387714897222983262
249057 25 17968389974332470676
249057 3 18333731321490660205
2838139 119 15936412234284231444
3004659 81 18334012817293068304
3178227 256 16988844999437153682
335352 9 15357700765601291202
3383291 50 17918275376214249950
397830 11 18129089194941866096
4325135 7 17313100848023697382
4339292 15 18270952549256040935
44880568 143 18410862031909153740
504843 32 14779845887280810368
5104073 3 16772968986515351322
5265222 85 18337676433039381343
57527295 17 17487884628978184461
58902169 19 17095527318256077958
59682541 35 16988840609933305954
636775 8 18130518495681061758
67123 10 18334855031454441216
9962374 69 16844993706815514712
999808 66 17704357675627166439

> <PUBCHEM_SHAPE_MULTIPOLES>
535.57
26.86
1.66
1.33
36.69
0.38
0.04
7.07
1.67
-4.65
-0.05
1.99
-0.11
1.41

> <PUBCHEM_SHAPE_SELFOVERLAP>
1165.407

> <PUBCHEM_SHAPE_VOLUME>
293.6

> <PUBCHEM_COORDINATE_TYPE>
2
5
10

$$$$
