46879763
  -OEChem-05102415083D

 38 41  0     0  0  0  0  0  0999 V2000
    0.4413   -1.8556    0.0760 S   0  0  0  0  0  0  0  0  0  0  0  0
   -2.4823   -2.2162   -0.3910 O   0  0  0  0  0  0  0  0  0  0  0  0
   -0.1852    0.4213   -0.9611 N   0  0  0  0  0  0  0  0  0  0  0  0
   -2.9112   -0.1388   -1.3278 N   0  0  0  0  0  0  0  0  0  0  0  0
    7.1418   -0.3544    1.3221 N   0  0  0  0  0  0  0  0  0  0  0  0
    7.5575    0.4752    0.3499 N   0  0  0  0  0  0  0  0  0  0  0  0
    1.7021   -0.6944   -0.1106 C   0  0  0  0  0  0  0  0  0  0  0  0
    3.8944    0.2902   -0.0251 C   0  0  0  0  0  0  0  0  0  0  0  0
    1.1736    0.4660   -0.6843 C   0  0  0  0  0  0  0  0  0  0  0  0
    3.0609   -0.8024    0.2265 C   0  0  0  0  0  0  0  0  0  0  0  0
    3.3917    1.4548   -0.5948 C   0  0  0  0  0  0  0  0  0  0  0  0
    5.2894    0.2072    0.3099 C   0  0  0  0  0  0  0  0  0  0  0  0
    2.0379    1.5555   -0.9280 C   0  0  0  0  0  0  0  0  0  0  0  0
   -0.6684   -0.7455   -0.6037 C   0  0  0  0  0  0  0  0  0  0  0  0
   -4.3284   -0.3360   -1.5313 C   0  0  0  0  0  0  0  0  0  0  0  0
   -5.1335    0.1062   -0.3436 C   0  0  0  0  0  0  0  0  0  0  0  0
   -2.0394   -1.0966   -0.7607 C   0  0  0  0  0  0  0  0  0  0  0  0
    5.7918   -0.5482    1.3414 C   0  0  0  0  0  0  0  0  0  0  0  0
    6.4215    0.8150   -0.2650 C   0  0  0  0  0  0  0  0  0  0  0  0
   -5.4211   -0.7970    0.6795 C   0  0  0  0  0  0  0  0  0  0  0  0
   -5.5938    1.4204   -0.2636 C   0  0  0  0  0  0  0  0  0  0  0  0
   -6.1693   -0.3862    1.7829 C   0  0  0  0  0  0  0  0  0  0  0  0
   -6.3418    1.8314    0.8396 C   0  0  0  0  0  0  0  0  0  0  0  0
   -6.6297    0.9281    1.8629 C   0  0  0  0  0  0  0  0  0  0  0  0
    3.4327   -1.7274    0.6581 H   0  0  0  0  0  0  0  0  0  0  0  0
    4.0320    2.3125   -0.7885 H   0  0  0  0  0  0  0  0  0  0  0  0
    1.6551    2.4703   -1.3714 H   0  0  0  0  0  0  0  0  0  0  0  0
   -4.6153    0.2312   -2.4240 H   0  0  0  0  0  0  0  0  0  0  0  0
   -4.5197   -1.3929   -1.7502 H   0  0  0  0  0  0  0  0  0  0  0  0
   -2.5226    0.7613   -1.5954 H   0  0  0  0  0  0  0  0  0  0  0  0
    5.3350   -1.1893    2.0827 H   0  0  0  0  0  0  0  0  0  0  0  0
    6.4751    1.4901   -1.1077 H   0  0  0  0  0  0  0  0  0  0  0  0
   -5.0723   -1.8248    0.6294 H   0  0  0  0  0  0  0  0  0  0  0  0
   -5.3747    2.1341   -1.0534 H   0  0  0  0  0  0  0  0  0  0  0  0
    7.8359   -0.7538    1.9414 H   0  0  0  0  0  0  0  0  0  0  0  0
   -6.3939   -1.0897    2.5793 H   0  0  0  0  0  0  0  0  0  0  0  0
   -6.7000    2.8548    0.9022 H   0  0  0  0  0  0  0  0  0  0  0  0
   -7.2122    1.2481    2.7218 H   0  0  0  0  0  0  0  0  0  0  0  0
  1  7  1  0  0  0  0
  1 14  1  0  0  0  0
  2 17  2  0  0  0  0
  3  9  1  0  0  0  0
  3 14  2  0  0  0  0
  4 15  1  0  0  0  0
  4 17  1  0  0  0  0
  4 30  1  0  0  0  0
  5  6  1  0  0  0  0
  5 18  1  0  0  0  0
  5 35  1  0  0  0  0
  6 19  2  0  0  0  0
  7  9  2  0  0  0  0
  7 10  1  0  0  0  0
  8 10  2  0  0  0  0
  8 11  1  0  0  0  0
  8 12  1  0  0  0  0
  9 13  1  0  0  0  0
 10 25  1  0  0  0  0
 11 13  2  0  0  0  0
 11 26  1  0  0  0  0
 12 18  2  0  0  0  0
 12 19  1  0  0  0  0
 13 27  1  0  0  0  0
 14 17  1  0  0  0  0
 15 16  1  0  0  0  0
 15 28  1  0  0  0  0
 15 29  1  0  0  0  0
 16 20  2  0  0  0  0
 16 21  1  0  0  0  0
 18 31  1  0  0  0  0
 19 32  1  0  0  0  0
 20 22  1  0  0  0  0
 20 33  1  0  0  0  0
 21 23  2  0  0  0  0
 21 34  1  0  0  0  0
 22 24  2  0  0  0  0
 22 36  1  0  0  0  0
 23 24  1  0  0  0  0
 23 37  1  0  0  0  0
 24 38  1  0  0  0  0
M  END
> <PUBCHEM_COMPOUND_CID>
46879763

> <PUBCHEM_CONFORMER_RMSD>
0.8

> <PUBCHEM_CONFORMER_DIVERSEORDER>
1
6
12
10
13
11
5
4
2
8
3
9
7

> <PUBCHEM_MMFF94_PARTIAL_CHARGES>
36
1 -0.08
10 -0.15
11 -0.15
12 -0.05
13 -0.15
14 0.29
15 0.44
16 -0.14
17 0.71
18 -0.3
19 0.14
2 -0.57
20 -0.15
21 -0.15
22 -0.15
23 -0.15
24 -0.15
25 0.15
26 0.15
27 0.15
3 -0.57
30 0.37
31 0.15
32 0.15
33 0.15
34 0.15
35 0.27
36 0.15
37 0.15
38 0.15
4 -0.73
5 0.3
6 -0.71
7 0.04
8 0.05
9 0.23

> <PUBCHEM_EFFECTIVE_ROTOR_COUNT>
5

> <PUBCHEM_PHARMACOPHORE_FEATURES>
9
1 2 acceptor
1 3 acceptor
1 4 donor
1 5 donor
1 6 acceptor
5 1 3 7 9 14 rings
5 5 6 12 18 19 rings
6 16 20 21 22 23 24 rings
6 7 8 9 10 11 13 rings

> <PUBCHEM_HEAVY_ATOM_COUNT>
24

> <PUBCHEM_ATOM_DEF_STEREO_COUNT>
0

> <PUBCHEM_ATOM_UDEF_STEREO_COUNT>
0

> <PUBCHEM_BOND_DEF_STEREO_COUNT>
0

> <PUBCHEM_BOND_UDEF_STEREO_COUNT>
0

> <PUBCHEM_ISOTOPIC_ATOM_COUNT>
0

> <PUBCHEM_COMPONENT_COUNT>
1

> <PUBCHEM_CACTVS_TAUTO_COUNT>
9

> <PUBCHEM_CONFORMER_ID>
02CB541300000001

> <PUBCHEM_MMFF94_ENERGY>
46.2154

> <PUBCHEM_FEATURE_SELFOVERLAP>
45.744

> <PUBCHEM_SHAPE_FINGERPRINT>
10 15 18187367631655622789
10087517 78 16988847159679428593
10429389 143 15123501532804083650
105312 117 16200154296774718045
10554248 39 13758084004387674800
10763959 59 15051724322573350826
10906281 52 18336554897446974750
11089746 13 17775278391563380173
11181472 205 17060071324462450248
11646440 116 18409728469790684768
11963148 33 11458420258637815984
12236239 1 18273210902435192142
125118 31 16988555849617818408
12539765 74 17704077339560653340
12616971 3 18187643647723541678
13288520 33 12829206672784210567
13533116 47 17274826805839020302
13668630 136 11963395150290679521
13673619 4 14418136227202782343
13685833 64 16588022412018613488
13690498 29 12031200933339557037
13782708 43 14345786145907970184
13914758 101 16272215167540415158
14251764 18 18187364363101114734
14344974 204 16878804819009876355
14556957 393 10735881720130888091
14729087 3 16845569811857891200
14767858 380 10087639312404740872
14849402 71 18115877463059732948
15021287 119 17749388200186279375
15183329 4 18336255812771807214
15238133 3 18059861687588093980
15352257 5 15285636577775851144
15461852 350 17560793364789376885
15475509 8 18341625789339877932
15716309 27 16008752411753658413
17780758 139 17458065946367703389
18222031 100 8430316813969380967
18769570 83 17561084709105262729
18927931 339 14345793851749068951
21033648 29 17059758006402904962
21130935 74 18343013420164520278
21150785 3 11672059744654255529
21267235 1 17895187772089802658
21424621 283 17418097602558258347
21521721 280 17822292422910664872
21623969 137 17167580466818088746
21756936 100 18060137648675966903
21774942 28 16128104342760942640
21781051 124 17095537158464288898
2303208 19 16081082671389602302
23081809 10 18340481283254705900
23198884 109 14979959155915789473
23389318 12 7997677702287325354
23522609 53 17896904194696206532
23576562 1 13110376018799384816
24771293 8 18196641003852925036
2838139 119 16630524042406390529
3009799 131 15482671286319064586
3178227 256 17821450162253562544
328310 630 13973686186704738611
3633792 109 15338850720510399838
397830 11 15357985623989052996
4093350 32 17489309642791672142
4325135 7 9871753502598998825
4340502 62 16008743590149575114
445580 204 17418379064892439737
465052 167 17167858656603525922
5104073 3 18190173675729593224
5385378 56 18343022142884259598
563151 97 12678922115979485967
6201460 15 12328808017683679505
7226269 152 17917993871583672841
7495541 125 15285363933014491575
9953998 17 16660364762699742997
999808 66 16370444449417249155

> <PUBCHEM_SHAPE_MULTIPOLES>
471.96
21.22
1.64
1.41
4.19
0.09
-0.34
-5.99
-10.58
-1.08
0.09
-1.65
-0.03
-1.25

> <PUBCHEM_SHAPE_SELFOVERLAP>
1035.765

> <PUBCHEM_SHAPE_VOLUME>
256.9

> <PUBCHEM_COORDINATE_TYPE>
2
5
10

$$$$
44634494
  -OEChem-05102415083D

 56 59  0     0  0  0  0  0  0999 V2000
    0.9579   -1.5990   -0.8836 S   0  0  0  0  0  0  0  0  0  0  0  0
   -1.4857   -0.7647   -2.7251 O   0  0  0  0  0  0  0  0  0  0  0  0
   -6.7334   -0.6890    2.0520 O   0  0  0  0  0  0  0  0  0  0  0  0
   -2.1125    0.6573   -0.9790 N   0  0  0  0  0  0  0  0  0  0  0  0
   -1.0773    3.6441    1.0187 N   0  0  0  0  0  0  0  0  0  0  0  0
    0.9439    0.9575   -1.2239 N   0  0  0  0  0  0  0  0  0  0  0  0
    7.4964   -2.0524    1.5156 N   0  0  0  0  0  0  0  0  0  0  0  0
    8.2183   -1.0990    0.9025 N   0  0  0  0  0  0  0  0  0  0  0  0
   -1.7707    1.4454    0.2032 C   0  0  0  0  0  0  0  0  0  0  0  0
   -1.3865    2.8683   -0.1754 C   0  0  0  0  0  0  0  0  0  0  0  0
   -3.5145    0.6860   -1.3719 C   0  0  0  0  0  0  0  0  0  0  0  0
   -4.3214   -0.3770   -0.6806 C   0  0  0  0  0  0  0  0  0  0  0  0
   -1.1598   -0.0984   -1.7161 C   0  0  0  0  0  0  0  0  0  0  0  0
    0.2031   -0.1229   -1.3043 C   0  0  0  0  0  0  0  0  0  0  0  0
    2.4205   -0.7464   -0.5563 C   0  0  0  0  0  0  0  0  0  0  0  0
    2.2187    0.6162   -0.7958 C   0  0  0  0  0  0  0  0  0  0  0  0
   -5.1636   -0.0359    0.3778 C   0  0  0  0  0  0  0  0  0  0  0  0
    0.2725    3.3394    1.4975 C   0  0  0  0  0  0  0  0  0  0  0  0
   -1.2085    5.0777    0.7513 C   0  0  0  0  0  0  0  0  0  0  0  0
   -4.2275   -1.7049   -1.0973 C   0  0  0  0  0  0  0  0  0  0  0  0
    4.7051   -0.3445    0.0777 C   0  0  0  0  0  0  0  0  0  0  0  0
    3.6572   -1.2473   -0.1187 C   0  0  0  0  0  0  0  0  0  0  0  0
   -5.9119   -1.0226    1.0193 C   0  0  0  0  0  0  0  0  0  0  0  0
    3.2943    1.5069   -0.5895 C   0  0  0  0  0  0  0  0  0  0  0  0
    4.5282    1.0152   -0.1540 C   0  0  0  0  0  0  0  0  0  0  0  0
   -4.9758   -2.6916   -0.4555 C   0  0  0  0  0  0  0  0  0  0  0  0
   -5.8180   -2.3505    0.6029 C   0  0  0  0  0  0  0  0  0  0  0  0
    5.9817   -0.8295    0.5251 C   0  0  0  0  0  0  0  0  0  0  0  0
    6.1514   -1.9361    1.3207 C   0  0  0  0  0  0  0  0  0  0  0  0
    7.2877   -0.3550    0.2990 C   0  0  0  0  0  0  0  0  0  0  0  0
   -7.4698   -1.7474    2.6636 C   0  0  0  0  0  0  0  0  0  0  0  0
   -0.9571    0.9382    0.7294 H   0  0  0  0  0  0  0  0  0  0  0  0
   -2.6240    1.4445    0.8916 H   0  0  0  0  0  0  0  0  0  0  0  0
   -0.5743    2.9066   -0.9095 H   0  0  0  0  0  0  0  0  0  0  0  0
   -2.2542    3.3108   -0.6833 H   0  0  0  0  0  0  0  0  0  0  0  0
   -3.5877    0.5310   -2.4557 H   0  0  0  0  0  0  0  0  0  0  0  0
   -3.9262    1.6849   -1.1847 H   0  0  0  0  0  0  0  0  0  0  0  0
   -5.2420    0.9969    0.7085 H   0  0  0  0  0  0  0  0  0  0  0  0
    0.3762    2.2890    1.7856 H   0  0  0  0  0  0  0  0  0  0  0  0
    0.4946    3.9213    2.3996 H   0  0  0  0  0  0  0  0  0  0  0  0
    1.0390    3.5717    0.7494 H   0  0  0  0  0  0  0  0  0  0  0  0
   -0.9976    5.6591    1.6559 H   0  0  0  0  0  0  0  0  0  0  0  0
   -0.5297    5.4134   -0.0412 H   0  0  0  0  0  0  0  0  0  0  0  0
   -2.2347    5.3239    0.4563 H   0  0  0  0  0  0  0  0  0  0  0  0
   -3.5885   -1.9909   -1.9264 H   0  0  0  0  0  0  0  0  0  0  0  0
    3.7746   -2.3151    0.0426 H   0  0  0  0  0  0  0  0  0  0  0  0
    3.1662    2.5711   -0.7660 H   0  0  0  0  0  0  0  0  0  0  0  0
    5.3366    1.7261    0.0025 H   0  0  0  0  0  0  0  0  0  0  0  0
   -4.9043   -3.7250   -0.7824 H   0  0  0  0  0  0  0  0  0  0  0  0
   -6.3709   -3.1662    1.0561 H   0  0  0  0  0  0  0  0  0  0  0  0
    5.4640   -2.6397    1.7698 H   0  0  0  0  0  0  0  0  0  0  0  0
    7.6086    0.4992   -0.2807 H   0  0  0  0  0  0  0  0  0  0  0  0
    7.9879   -2.7543    2.0548 H   0  0  0  0  0  0  0  0  0  0  0  0
   -8.1694   -2.2101    1.9592 H   0  0  0  0  0  0  0  0  0  0  0  0
   -6.8054   -2.4816    3.1317 H   0  0  0  0  0  0  0  0  0  0  0  0
   -8.0697   -1.3029    3.4645 H   0  0  0  0  0  0  0  0  0  0  0  0
  1 14  1  0  0  0  0
  1 15  1  0  0  0  0
  2 13  2  0  0  0  0
  3 23  1  0  0  0  0
  3 31  1  0  0  0  0
  4  9  1  0  0  0  0
  4 11  1  0  0  0  0
  4 13  1  0  0  0  0
  5 10  1  0  0  0  0
  5 18  1  0  0  0  0
  5 19  1  0  0  0  0
  6 14  2  0  0  0  0
  6 16  1  0  0  0  0
  7  8  1  0  0  0  0
  7 29  1  0  0  0  0
  7 53  1  0  0  0  0
  8 30  2  0  0  0  0
  9 10  1  0  0  0  0
  9 32  1  0  0  0  0
  9 33  1  0  0  0  0
 10 34  1  0  0  0  0
 10 35  1  0  0  0  0
 11 12  1  0  0  0  0
 11 36  1  0  0  0  0
 11 37  1  0  0  0  0
 12 17  2  0  0  0  0
 12 20  1  0  0  0  0
 13 14  1  0  0  0  0
 15 16  2  0  0  0  0
 15 22  1  0  0  0  0
 16 24  1  0  0  0  0
 17 23  1  0  0  0  0
 17 38  1  0  0  0  0
 18 39  1  0  0  0  0
 18 40  1  0  0  0  0
 18 41  1  0  0  0  0
 19 42  1  0  0  0  0
 19 43  1  0  0  0  0
 19 44  1  0  0  0  0
 20 26  2  0  0  0  0
 20 45  1  0  0  0  0
 21 22  2  0  0  0  0
 21 25  1  0  0  0  0
 21 28  1  0  0  0  0
 22 46  1  0  0  0  0
 23 27  2  0  0  0  0
 24 25  2  0  0  0  0
 24 47  1  0  0  0  0
 25 48  1  0  0  0  0
 26 27  1  0  0  0  0
 26 49  1  0  0  0  0
 27 50  1  0  0  0  0
 28 29  2  0  0  0  0
 28 30  1  0  0  0  0
 29 51  1  0  0  0  0
 30 52  1  0  0  0  0
 31 54  1  0  0  0  0
 31 55  1  0  0  0  0
 31 56  1  0  0  0  0
M  END
> <PUBCHEM_COMPOUND_CID>
44634494

> <PUBCHEM_CONFORMER_RMSD>
1

> <PUBCHEM_CONFORMER_DIVERSEORDER>
2
104
24
20
82
139
189
196
159
87
52
78
182
31
71
113
156
91
185
142
96
7
200
129
155
191
178
100
50
43
161
35
16
126
18
170
15
138
168
106
107
25
134
114
74
5
194
94
86
97
164
34
193
90
68
88
131
125
36
72
123
21
66
175
109
63
37
171
150
62
195
41
130
119
83
27
167
192
48
81
121
165
80
40
153
75
199
93
49
172
177
33
69
103
148
102
70
29
111
154
23
76
157
8
166
92
176
186
39
143
22
11
163
57
65
67
127
128
179
118
181
151
101
46
10
137
54
105
44
42
32
184
180
158
202
173
132
190
198
201
98
135
117
17
136
149
99
79
112
14
73
84
6
133
12
145
85
61
56
9
53
141
26
55
77
188
58
122
28
187
38
45
108
144
13
60
3
116
124
30
89
174
59
160
169
183
152
19
110
140
115
47
120
146
4
197
64
51
162
1
95
147

> <PUBCHEM_MMFF94_PARTIAL_CHARGES>
41
1 -0.08
10 0.27
11 0.44
12 -0.14
13 0.71
14 0.29
15 0.04
16 0.23
17 -0.15
18 0.27
19 0.27
2 -0.57
20 -0.15
21 0.05
22 -0.15
23 0.08
24 -0.15
25 -0.15
26 -0.15
27 -0.15
28 -0.05
29 -0.3
3 -0.36
30 0.14
31 0.28
38 0.15
4 -0.66
45 0.15
46 0.15
47 0.15
48 0.15
49 0.15
5 -0.81
50 0.15
51 0.15
52 0.15
53 0.27
6 -0.57
7 0.3
8 -0.71
9 0.3

> <PUBCHEM_EFFECTIVE_ROTOR_COUNT>
9

> <PUBCHEM_PHARMACOPHORE_FEATURES>
10
1 2 acceptor
1 3 acceptor
1 5 cation
1 6 acceptor
1 7 donor
1 8 acceptor
5 1 6 14 15 16 rings
5 7 8 28 29 30 rings
6 12 17 20 23 26 27 rings
6 15 16 21 22 24 25 rings

> <PUBCHEM_HEAVY_ATOM_COUNT>
31

> <PUBCHEM_ATOM_DEF_STEREO_COUNT>
0

> <PUBCHEM_ATOM_UDEF_STEREO_COUNT>
0

> <PUBCHEM_BOND_DEF_STEREO_COUNT>
0

> <PUBCHEM_BOND_UDEF_STEREO_COUNT>
0

> <PUBCHEM_ISOTOPIC_ATOM_COUNT>
0

> <PUBCHEM_COMPONENT_COUNT>
1

> <PUBCHEM_CACTVS_TAUTO_COUNT>
5

> <PUBCHEM_CONFORMER_ID>
02A9117E00000002

> <PUBCHEM_MMFF94_ENERGY>
82.254

> <PUBCHEM_FEATURE_SELFOVERLAP>
50.819

> <PUBCHEM_SHAPE_FINGERPRINT>
105312 117 9223229676212025025
10554248 39 10663833940182375296
10674148 151 15791730798543048973
11200772 48 11169919389449819569
11456790 92 18262816137746267043
12166972 35 18040434412832485532
12596602 18 18187636978251266760
12758862 11 17968639546191964645
13257819 101 12463303466520264321
13540713 4 17486501395124510388
13668630 136 15864071000812102355
13782708 43 17168133525778402870
14068700 675 18333450949866681724
14849402 71 18269270335094134864
14931854 50 12540688254460843035
16994733 274 13686286990236969194
19246450 95 18271539598539589529
19958102 18 10809617074654661728
20105231 36 18272377460602249566
20721686 146 12750970892644663491
21033648 29 15984836951650004855
21424621 283 14764631914843958118
23576562 1 9870878296150479570
255183 313 17060331946391816023
2747138 104 18413668003184152058
3552219 110 18335148604958931948
392239 28 18341897411202720375
4015057 19 15285654195689475548
44880568 143 14996274825560687462
469060 322 18201170870618998696
5104073 3 18413666911751262664
5372103 7 12678638382546447219
563151 97 10954278710966407639
58083652 198 18342166821822077085
6009941 240 17895189962238404365
6328613 192 10447929486039639166
9896288 288 18128254480742859816
999808 66 17748825219778521259

> <PUBCHEM_SHAPE_MULTIPOLES>
605.17
20.02
3.9
1.88
12.97
6.04
0.25
-19
13.69
-2.39
1.82
-2.39
-0.55
-0.48

> <PUBCHEM_SHAPE_SELFOVERLAP>
1297.028

> <PUBCHEM_SHAPE_VOLUME>
339.4

> <PUBCHEM_COORDINATE_TYPE>
2
5
10

$$$$
46879807
  -OEChem-05102415083D

 49 53  0     0  0  0  0  0  0999 V2000
    1.3849    2.1653    0.1744 S   0  0  0  0  0  0  0  0  0  0  0  0
   -1.6054    2.3962    1.2468 O   0  0  0  0  0  0  0  0  0  0  0  0
   -5.9876   -2.6111   -0.1010 O   0  0  0  0  0  0  0  0  0  0  0  0
   -2.1967    1.1890   -0.6683 N   0  0  0  0  0  0  0  0  0  0  0  0
    0.3358   -0.1794    0.4062 N   0  0  0  0  0  0  0  0  0  0  0  0
    8.0133    0.0355   -0.3063 N   0  0  0  0  0  0  0  0  0  0  0  0
    8.1379   -1.0704    0.4473 N   0  0  0  0  0  0  0  0  0  0  0  0
   -1.8249    0.2706   -1.7267 C   0  0  0  0  0  0  0  0  0  0  0  0
   -0.6392    0.5404   -2.6056 C   0  0  0  0  0  0  0  0  0  0  0  0
   -2.0266    0.6239   -3.1711 C   0  0  0  0  0  0  0  0  0  0  0  0
   -3.5886    1.6200   -0.6535 C   0  0  0  0  0  0  0  0  0  0  0  0
   -1.2772    1.6026    0.3355 C   0  0  0  0  0  0  0  0  0  0  0  0
   -4.4531    0.6997    0.1590 C   0  0  0  0  0  0  0  0  0  0  0  0
    0.0546    1.0995    0.3173 C   0  0  0  0  0  0  0  0  0  0  0  0
   -4.8227   -0.5436   -0.3540 C   0  0  0  0  0  0  0  0  0  0  0  0
   -4.8873    1.0885    1.4264 C   0  0  0  0  0  0  0  0  0  0  0  0
    2.4585    0.8174    0.2335 C   0  0  0  0  0  0  0  0  0  0  0  0
    1.7108   -0.3573    0.3593 C   0  0  0  0  0  0  0  0  0  0  0  0
   -5.6265   -1.3984    0.4004 C   0  0  0  0  0  0  0  0  0  0  0  0
   -5.6913    0.2338    2.1806 C   0  0  0  0  0  0  0  0  0  0  0  0
   -6.0606   -1.0097    1.6679 C   0  0  0  0  0  0  0  0  0  0  0  0
    3.8613    0.8008    0.1728 C   0  0  0  0  0  0  0  0  0  0  0  0
    2.3939   -1.5912    0.4263 C   0  0  0  0  0  0  0  0  0  0  0  0
    4.5125   -0.4333    0.2412 C   0  0  0  0  0  0  0  0  0  0  0  0
    3.7902   -1.6150    0.3663 C   0  0  0  0  0  0  0  0  0  0  0  0
    5.9475   -0.4799    0.1815 C   0  0  0  0  0  0  0  0  0  0  0  0
    6.7216    0.4307   -0.4954 C   0  0  0  0  0  0  0  0  0  0  0  0
    6.8728   -1.3806    0.7422 C   0  0  0  0  0  0  0  0  0  0  0  0
   -5.5081   -2.9440   -1.4030 C   0  0  0  0  0  0  0  0  0  0  0  0
   -1.9831   -0.7660   -1.4454 H   0  0  0  0  0  0  0  0  0  0  0  0
   -0.1035    1.4782   -2.5333 H   0  0  0  0  0  0  0  0  0  0  0  0
   -0.0255   -0.3030   -2.8980 H   0  0  0  0  0  0  0  0  0  0  0  0
   -2.3475   -0.1641   -3.8414 H   0  0  0  0  0  0  0  0  0  0  0  0
   -2.3932    1.6089   -3.4321 H   0  0  0  0  0  0  0  0  0  0  0  0
   -3.9788    1.6939   -1.6748 H   0  0  0  0  0  0  0  0  0  0  0  0
   -3.6314    2.6359   -0.2421 H   0  0  0  0  0  0  0  0  0  0  0  0
   -4.4725   -0.7913   -1.3498 H   0  0  0  0  0  0  0  0  0  0  0  0
   -4.6067    2.0536    1.8396 H   0  0  0  0  0  0  0  0  0  0  0  0
   -6.0292    0.5363    3.1675 H   0  0  0  0  0  0  0  0  0  0  0  0
   -6.6869   -1.6712    2.2602 H   0  0  0  0  0  0  0  0  0  0  0  0
    4.4038    1.7382    0.0884 H   0  0  0  0  0  0  0  0  0  0  0  0
    1.8391   -2.5202    0.5225 H   0  0  0  0  0  0  0  0  0  0  0  0
    4.2885   -2.5807    0.4140 H   0  0  0  0  0  0  0  0  0  0  0  0
    6.4912    1.3034   -1.0910 H   0  0  0  0  0  0  0  0  0  0  0  0
    6.6864   -2.2504    1.3566 H   0  0  0  0  0  0  0  0  0  0  0  0
   -5.9048   -2.2637   -2.1643 H   0  0  0  0  0  0  0  0  0  0  0  0
   -4.4145   -3.0032   -1.4271 H   0  0  0  0  0  0  0  0  0  0  0  0
   -5.8866   -3.9437   -1.6405 H   0  0  0  0  0  0  0  0  0  0  0  0
    8.8551    0.4708   -0.6625 H   0  0  0  0  0  0  0  0  0  0  0  0
  1 14  1  0  0  0  0
  1 17  1  0  0  0  0
  2 12  2  0  0  0  0
  3 19  1  0  0  0  0
  3 29  1  0  0  0  0
  4  8  1  0  0  0  0
  4 11  1  0  0  0  0
  4 12  1  0  0  0  0
  5 14  2  0  0  0  0
  5 18  1  0  0  0  0
  6  7  1  0  0  0  0
  6 27  1  0  0  0  0
  6 49  1  0  0  0  0
  7 28  2  0  0  0  0
  8  9  1  0  0  0  0
  8 10  1  0  0  0  0
  8 30  1  0  0  0  0
  9 10  1  0  0  0  0
  9 31  1  0  0  0  0
  9 32  1  0  0  0  0
 10 33  1  0  0  0  0
 10 34  1  0  0  0  0
 11 13  1  0  0  0  0
 11 35  1  0  0  0  0
 11 36  1  0  0  0  0
 12 14  1  0  0  0  0
 13 15  2  0  0  0  0
 13 16  1  0  0  0  0
 15 19  1  0  0  0  0
 15 37  1  0  0  0  0
 16 20  2  0  0  0  0
 16 38  1  0  0  0  0
 17 18  2  0  0  0  0
 17 22  1  0  0  0  0
 18 23  1  0  0  0  0
 19 21  2  0  0  0  0
 20 21  1  0  0  0  0
 20 39  1  0  0  0  0
 21 40  1  0  0  0  0
 22 24  2  0  0  0  0
 22 41  1  0  0  0  0
 23 25  2  0  0  0  0
 23 42  1  0  0  0  0
 24 25  1  0  0  0  0
 24 26  1  0  0  0  0
 25 43  1  0  0  0  0
 26 27  2  0  0  0  0
 26 28  1  0  0  0  0
 27 44  1  0  0  0  0
 28 45  1  0  0  0  0
 29 46  1  0  0  0  0
 29 47  1  0  0  0  0
 29 48  1  0  0  0  0
M  END
> <PUBCHEM_COMPOUND_CID>
46879807

> <PUBCHEM_CONFORMER_RMSD>
1

> <PUBCHEM_CONFORMER_DIVERSEORDER>
1
116
162
129
102
26
86
107
5
161
123
118
117
39
151
121
168
67
74
96
73
146
176
47
11
65
122
155
15
88
68
99
60
125
105
76
141
95
165
93
131
119
49
135
37
142
40
59
98
138
132
172
106
134
84
144
164
22
174
170
69
163
89
14
83
111
139
127
16
150
28
25
61
54
173
36
140
136
42
167
126
80
77
124
34
78
45
154
66
79
149
62
9
63
156
110
64
41
53
113
166
20
103
169
91
75
17
8
108
104
153
12
32
52
13
130
157
90
97
70
3
48
46
82
148
171
50
2
92
29
38
19
4
43
71
143
94
10
100
133
55
57
7
21
44
112
114
147
58
120
85
175
160
51
101
6
159
87
145
128
23
72
31
35
158
18
109
115
56
30
81
137
33
24
152
27

> <PUBCHEM_MMFF94_PARTIAL_CHARGES>
44
1 -0.08
10 -0.2
11 0.44
12 0.71
13 -0.14
14 0.29
15 -0.15
16 -0.15
17 0.04
18 0.23
19 0.08
2 -0.57
20 -0.15
21 -0.15
22 -0.15
23 -0.15
24 0.05
25 -0.15
26 -0.05
27 -0.3
28 0.14
29 0.28
3 -0.36
30 0.1
31 0.1
32 0.1
33 0.1
34 0.1
37 0.15
38 0.15
39 0.15
4 -0.51
40 0.15
41 0.15
42 0.15
43 0.15
44 0.15
45 0.15
49 0.27
5 -0.57
6 0.3
7 -0.71
8 0.05
9 -0.2

> <PUBCHEM_EFFECTIVE_ROTOR_COUNT>
7.6

> <PUBCHEM_PHARMACOPHORE_FEATURES>
9
1 2 acceptor
1 3 acceptor
1 5 acceptor
1 6 donor
1 7 acceptor
5 1 5 14 17 18 rings
5 6 7 26 27 28 rings
6 13 15 16 19 20 21 rings
6 17 18 22 23 24 25 rings

> <PUBCHEM_HEAVY_ATOM_COUNT>
29

> <PUBCHEM_ATOM_DEF_STEREO_COUNT>
0

> <PUBCHEM_ATOM_UDEF_STEREO_COUNT>
0

> <PUBCHEM_BOND_DEF_STEREO_COUNT>
0

> <PUBCHEM_BOND_UDEF_STEREO_COUNT>
0

> <PUBCHEM_ISOTOPIC_ATOM_COUNT>
0

> <PUBCHEM_COMPONENT_COUNT>
1

> <PUBCHEM_CACTVS_TAUTO_COUNT>
5

> <PUBCHEM_CONFORMER_ID>
02CB543F00000001

> <PUBCHEM_MMFF94_ENERGY>
79.3496

> <PUBCHEM_FEATURE_SELFOVERLAP>
45.745

> <PUBCHEM_SHAPE_FINGERPRINT>
10299344 5 18411423920788530578
10577160 103 15430042105709384686
11135609 99 18267867371268686287
11445158 3 18336264634376638868
11963148 33 18410284784247136594
12166972 35 18041001743869118668
12422481 6 16845298181167737029
12596602 18 17632016446243920123
12633257 1 17988655129415641859
13103583 49 18060147548543546129
13540713 5 16628537336438152125
13673619 4 18113900476516972229
13782708 43 17530959147366724978
13914758 101 8430322337840337052
14444916 359 16200160880806517972
14849402 71 18129381665220302704
14856354 85 18201721777547295535
14955137 171 17703794729721123896
15142383 8 12319735848457390418
15183329 4 18187642522595721042
15238133 3 13686298015011115704
15352257 5 18408041806100468714
15461852 350 15068629271206642874
15537594 2 17774430599816725470
16110190 28 17346312730390738496
17780758 139 17917715686989501153
18608769 82 18341893009024759538
20105231 36 17703800206458509110
20511986 3 11242259584484432588
21267235 1 18413112741153735608
21344244 246 15503807292860647799
21521721 280 18060698416896466688
21756936 100 13255079412138071837
21774942 28 11675143857506239814
21795232 338 16916494978298270982
23522609 53 18194996064699442208
23569917 315 18336270034222083434
23569943 247 17835528116569921570
4258327 124 17096671944873945636
4280585 95 16008755736010950733
4325135 7 18186802469614598654
4938544 92 18059581226967529329
5104073 3 16486391313873780610
5969126 39 16588022403043642189
7226269 152 13254799023171181307
9896288 288 17702954612716958753
999808 66 18273216378618727782

> <PUBCHEM_SHAPE_MULTIPOLES>
568.99
20.31
2.28
1.89
23.19
0.71
1.31
11.49
-4.91
-2.56
0.1
-3.37
-0.33
-1.08

> <PUBCHEM_SHAPE_SELFOVERLAP>
1243.404

> <PUBCHEM_SHAPE_VOLUME>
312.2

> <PUBCHEM_COORDINATE_TYPE>
2
5
10

$$$$
46879865
  -OEChem-05102415083D

 52 55  0     0  0  0  0  0  0999 V2000
    0.6478    1.3712    0.5406 S   0  0  0  0  0  0  0  0  0  0  0  0
   -0.9612   -4.0705   -1.0923 O   0  0  0  0  0  0  0  0  0  0  0  0
   -1.9044    0.5416    2.2310 O   0  0  0  0  0  0  0  0  0  0  0  0
   -5.2449    3.4127   -0.1984 O   0  0  0  0  0  0  0  0  0  0  0  0
   -2.2996   -1.0456    0.5611 N   0  0  0  0  0  0  0  0  0  0  0  0
    0.7342   -1.1478    1.0880 N   0  0  0  0  0  0  0  0  0  0  0  0
    7.3418    2.0180   -1.3234 N   0  0  0  0  0  0  0  0  0  0  0  0
    8.0543    1.1582   -0.5754 N   0  0  0  0  0  0  0  0  0  0  0  0
   -3.7276   -1.1252    0.8349 C   0  0  0  0  0  0  0  0  0  0  0  0
   -1.8138   -1.9020   -0.5189 C   0  0  0  0  0  0  0  0  0  0  0  0
   -4.5161   -0.1675   -0.0110 C   0  0  0  0  0  0  0  0  0  0  0  0
   -1.4562   -0.1809    1.3114 C   0  0  0  0  0  0  0  0  0  0  0  0
   -1.3916   -3.2653   -0.0025 C   0  0  0  0  0  0  0  0  0  0  0  0
   -0.0651   -0.1092    1.0161 C   0  0  0  0  0  0  0  0  0  0  0  0
    2.1753    0.5822    0.4098 C   0  0  0  0  0  0  0  0  0  0  0  0
    2.0229   -0.7672    0.7430 C   0  0  0  0  0  0  0  0  0  0  0  0
   -4.5138    1.1942    0.2910 C   0  0  0  0  0  0  0  0  0  0  0  0
    4.5249    0.2657    0.0071 C   0  0  0  0  0  0  0  0  0  0  0  0
   -5.2515   -0.6395   -1.0983 C   0  0  0  0  0  0  0  0  0  0  0  0
    3.4188    1.1186    0.0390 C   0  0  0  0  0  0  0  0  0  0  0  0
    3.1568   -1.6072    0.7026 C   0  0  0  0  0  0  0  0  0  0  0  0
    4.3979   -1.0798    0.3341 C   0  0  0  0  0  0  0  0  0  0  0  0
   -5.2468    2.0842   -0.4942 C   0  0  0  0  0  0  0  0  0  0  0  0
    5.8098    0.7879   -0.3690 C   0  0  0  0  0  0  0  0  0  0  0  0
   -5.9846    0.2502   -1.8834 C   0  0  0  0  0  0  0  0  0  0  0  0
   -5.9821    1.6122   -1.5816 C   0  0  0  0  0  0  0  0  0  0  0  0
    5.9926    1.8383   -1.2349 C   0  0  0  0  0  0  0  0  0  0  0  0
    7.1130    0.4094    0.0052 C   0  0  0  0  0  0  0  0  0  0  0  0
   -0.5595   -5.3628   -0.6589 C   0  0  0  0  0  0  0  0  0  0  0  0
   -4.4712    3.8260    0.9271 C   0  0  0  0  0  0  0  0  0  0  0  0
   -4.0679   -2.1581    0.6949 H   0  0  0  0  0  0  0  0  0  0  0  0
   -3.9066   -0.8911    1.8917 H   0  0  0  0  0  0  0  0  0  0  0  0
   -2.5889   -2.0064   -1.2868 H   0  0  0  0  0  0  0  0  0  0  0  0
   -0.9690   -1.4232   -1.0261 H   0  0  0  0  0  0  0  0  0  0  0  0
   -0.5889   -3.1880    0.7361 H   0  0  0  0  0  0  0  0  0  0  0  0
   -2.2415   -3.7556    0.4879 H   0  0  0  0  0  0  0  0  0  0  0  0
   -3.9438    1.5124    1.1546 H   0  0  0  0  0  0  0  0  0  0  0  0
   -5.2622   -1.6978   -1.3451 H   0  0  0  0  0  0  0  0  0  0  0  0
    3.4954    2.1757   -0.1992 H   0  0  0  0  0  0  0  0  0  0  0  0
    3.0679   -2.6603    0.9545 H   0  0  0  0  0  0  0  0  0  0  0  0
    5.2522   -1.7525    0.3059 H   0  0  0  0  0  0  0  0  0  0  0  0
   -6.5573   -0.1172   -2.7299 H   0  0  0  0  0  0  0  0  0  0  0  0
   -6.5551    2.3004   -2.1969 H   0  0  0  0  0  0  0  0  0  0  0  0
    5.3127    2.4641   -1.7966 H   0  0  0  0  0  0  0  0  0  0  0  0
    7.4244   -0.3775    0.6780 H   0  0  0  0  0  0  0  0  0  0  0  0
    0.2845   -5.2899    0.0338 H   0  0  0  0  0  0  0  0  0  0  0  0
   -1.3948   -5.8854   -0.1828 H   0  0  0  0  0  0  0  0  0  0  0  0
   -0.2431   -5.9362   -1.5343 H   0  0  0  0  0  0  0  0  0  0  0  0
    7.8427    2.7040   -1.8741 H   0  0  0  0  0  0  0  0  0  0  0  0
   -4.8529    3.3941    1.8585 H   0  0  0  0  0  0  0  0  0  0  0  0
   -3.4049    3.6229    0.7801 H   0  0  0  0  0  0  0  0  0  0  0  0
   -4.5798    4.9123    1.0117 H   0  0  0  0  0  0  0  0  0  0  0  0
  1 14  1  0  0  0  0
  1 15  1  0  0  0  0
  2 13  1  0  0  0  0
  2 29  1  0  0  0  0
  3 12  2  0  0  0  0
  4 23  1  0  0  0  0
  4 30  1  0  0  0  0
  5  9  1  0  0  0  0
  5 10  1  0  0  0  0
  5 12  1  0  0  0  0
  6 14  2  0  0  0  0
  6 16  1  0  0  0  0
  7  8  1  0  0  0  0
  7 27  1  0  0  0  0
  7 49  1  0  0  0  0
  8 28  2  0  0  0  0
  9 11  1  0  0  0  0
  9 31  1  0  0  0  0
  9 32  1  0  0  0  0
 10 13  1  0  0  0  0
 10 33  1  0  0  0  0
 10 34  1  0  0  0  0
 11 17  2  0  0  0  0
 11 19  1  0  0  0  0
 12 14  1  0  0  0  0
 13 35  1  0  0  0  0
 13 36  1  0  0  0  0
 15 16  2  0  0  0  0
 15 20  1  0  0  0  0
 16 21  1  0  0  0  0
 17 23  1  0  0  0  0
 17 37  1  0  0  0  0
 18 20  2  0  0  0  0
 18 22  1  0  0  0  0
 18 24  1  0  0  0  0
 19 25  2  0  0  0  0
 19 38  1  0  0  0  0
 20 39  1  0  0  0  0
 21 22  2  0  0  0  0
 21 40  1  0  0  0  0
 22 41  1  0  0  0  0
 23 26  2  0  0  0  0
 24 27  2  0  0  0  0
 24 28  1  0  0  0  0
 25 26  1  0  0  0  0
 25 42  1  0  0  0  0
 26 43  1  0  0  0  0
 27 44  1  0  0  0  0
 28 45  1  0  0  0  0
 29 46  1  0  0  0  0
 29 47  1  0  0  0  0
 29 48  1  0  0  0  0
 30 50  1  0  0  0  0
 30 51  1  0  0  0  0
 30 52  1  0  0  0  0
M  END
> <PUBCHEM_COMPOUND_CID>
46879865

> <PUBCHEM_CONFORMER_RMSD>
1

> <PUBCHEM_CONFORMER_DIVERSEORDER>
1
146
113
112
38
70
62
119
34
46
59
8
127
133
142
51
128
95
19
106
45
179
49
66
87
44
118
182
185
160
77
122
101
53
15
25
26
79
78
33
180
155
64
29
81
102
67
149
48
175
40
172
61
126
39
163
143
178
80
54
91
159
130
37
157
141
96
105
23
147
104
177
164
174
184
117
32
167
131
169
11
136
191
186
166
124
134
181
60
121
92
158
161
151
71
109
75
108
16
116
188
22
99
114
140
68
100
189
98
30
132
88
115
50
58
170
3
103
190
111
144
176
135
139
65
145
13
43
123
168
93
74
69
150
57
72
36
17
153
55
137
27
85
94
21
73
89
97
52
90
12
47
24
154
129
110
18
76
35
63
6
4
28
120
162
83
31
84
148
14
187
138
156
5
125
7
171
107
86
41
165
56
173
42
10
82
2
192
152
183
20
9

> <PUBCHEM_MMFF94_PARTIAL_CHARGES>
40
1 -0.08
10 0.3
11 -0.14
12 0.71
13 0.28
14 0.29
15 0.04
16 0.23
17 -0.15
18 0.05
19 -0.15
2 -0.56
20 -0.15
21 -0.15
22 -0.15
23 0.08
24 -0.05
25 -0.15
26 -0.15
27 -0.3
28 0.14
29 0.28
3 -0.57
30 0.28
37 0.15
38 0.15
39 0.15
4 -0.36
40 0.15
41 0.15
42 0.15
43 0.15
44 0.15
45 0.15
49 0.27
5 -0.66
6 -0.57
7 0.3
8 -0.71
9 0.44

> <PUBCHEM_EFFECTIVE_ROTOR_COUNT>
9

> <PUBCHEM_PHARMACOPHORE_FEATURES>
10
1 2 acceptor
1 3 acceptor
1 4 acceptor
1 6 acceptor
1 7 donor
1 8 acceptor
5 1 6 14 15 16 rings
5 7 8 24 27 28 rings
6 11 17 19 23 25 26 rings
6 15 16 18 20 21 22 rings

> <PUBCHEM_HEAVY_ATOM_COUNT>
30

> <PUBCHEM_ATOM_DEF_STEREO_COUNT>
0

> <PUBCHEM_ATOM_UDEF_STEREO_COUNT>
0

> <PUBCHEM_BOND_DEF_STEREO_COUNT>
0

> <PUBCHEM_BOND_UDEF_STEREO_COUNT>
0

> <PUBCHEM_ISOTOPIC_ATOM_COUNT>
0

> <PUBCHEM_COMPONENT_COUNT>
1

> <PUBCHEM_CACTVS_TAUTO_COUNT>
5

> <PUBCHEM_CONFORMER_ID>
02CB547900000001

> <PUBCHEM_MMFF94_ENERGY>
81.5948

> <PUBCHEM_FEATURE_SELFOVERLAP>
50.821

> <PUBCHEM_SHAPE_FINGERPRINT>
10366900 7 16989130859454576930
10369192 42 18408609154448066951
105312 117 18409452492293050503
10670039 82 18410849954576843373
10985338 8 18046610231689824105
11200772 48 18272366507475087463
11578821 258 17171255207627692436
12166972 35 12319732588018472498
12788726 201 17989208101395325896
13540713 4 17557131019763163458
13668630 136 16128370506385055397
13690498 29 18054788648517842855
13782708 43 13901913280648193340
13911987 19 18342173358820161299
14713325 29 18408889530161342843
14790565 3 18411136905082403513
15163728 17 18338244752303023591
15183329 4 18411695474301343969
15297060 5 18271529702355392041
15439362 3 18122344580390459071
167882 2 18267866069271168139
17780758 139 8574716806370447509
19958102 18 18272380745861177918
20511986 3 18260541260624783432
20775438 99 16762209454068889719
21033648 144 18040711429791079917
23559900 14 17774158058456309016
23576562 1 18118126003319788244
2838139 119 18334576853910593428
328310 630 17967543375689866220
392239 28 9223230788655683295
4015057 19 16199865193086958666
4058900 60 18336266739053265075
4169191 19 17822017531818600116
44802255 64 18335987553114703934
504843 32 18334860545528603763
5265222 85 18341894129631175197
563151 97 18199193897167231977
6328613 192 18333449841875954180
6898599 12 18265617757054654470
9953998 17 8070029969477936629

> <PUBCHEM_SHAPE_MULTIPOLES>
583.7
18.84
4.36
1.41
21.13
4.85
0.05
-16.62
8.82
-4.48
1.02
-1.11
-0.25
-1.54

> <PUBCHEM_SHAPE_SELFOVERLAP>
1255.406

> <PUBCHEM_SHAPE_VOLUME>
325

> <PUBCHEM_COORDINATE_TYPE>
2
5
10

$$$$
46879803
  -OEChem-05102415083D

 42 45  0     0  0  0  0  0  0999 V2000
    0.9680    1.0316   -1.4362 S   0  0  0  0  0  0  0  0  0  0  0  0
   -6.6236    2.0458    0.1212 O   0  0  0  0  0  0  0  0  0  0  0  0
   -1.9187    0.6419   -2.0767 O   0  0  0  0  0  0  0  0  0  0  0  0
   -2.2190   -1.3726   -0.9683 N   0  0  0  0  0  0  0  0  0  0  0  0
    0.4940   -1.2171   -0.2653 N   0  0  0  0  0  0  0  0  0  0  0  0
    7.7940    1.2609   -0.0021 N   0  0  0  0  0  0  0  0  0  0  0  0
    7.9759    0.6717    1.1921 N   0  0  0  0  0  0  0  0  0  0  0  0
    2.2793    0.2735   -0.6124 C   0  0  0  0  0  0  0  0  0  0  0  0
    4.4953   -0.0930    0.2467 C   0  0  0  0  0  0  0  0  0  0  0  0
    1.8322   -0.9241   -0.0459 C   0  0  0  0  0  0  0  0  0  0  0  0
    3.6081    0.7072   -0.4774 C   0  0  0  0  0  0  0  0  0  0  0  0
   -3.6145   -1.5424   -1.3041 C   0  0  0  0  0  0  0  0  0  0  0  0
   -4.5186   -0.9193   -0.2801 C   0  0  0  0  0  0  0  0  0  0  0  0
    4.0738   -1.2880    0.8192 C   0  0  0  0  0  0  0  0  0  0  0  0
    2.7496   -1.7136    0.6809 C   0  0  0  0  0  0  0  0  0  0  0  0
    5.8612    0.3266    0.4007 C   0  0  0  0  0  0  0  0  0  0  0  0
   -0.0534   -0.2626   -0.9807 C   0  0  0  0  0  0  0  0  0  0  0  0
   -1.4223   -0.2770   -1.3727 C   0  0  0  0  0  0  0  0  0  0  0  0
   -5.1597    0.2879   -0.5584 C   0  0  0  0  0  0  0  0  0  0  0  0
   -4.7171   -1.5471    0.9498 C   0  0  0  0  0  0  0  0  0  0  0  0
    6.5443    1.0840   -0.5192 C   0  0  0  0  0  0  0  0  0  0  0  0
   -5.9993    0.8674    0.3929 C   0  0  0  0  0  0  0  0  0  0  0  0
    6.7918    0.1026    1.4329 C   0  0  0  0  0  0  0  0  0  0  0  0
   -5.5564   -0.9674    1.9012 C   0  0  0  0  0  0  0  0  0  0  0  0
   -6.1977    0.2397    1.6228 C   0  0  0  0  0  0  0  0  0  0  0  0
   -7.4672    2.5833    1.1390 C   0  0  0  0  0  0  0  0  0  0  0  0
    3.9101    1.6510   -0.9224 H   0  0  0  0  0  0  0  0  0  0  0  0
   -3.7972   -1.1184   -2.2980 H   0  0  0  0  0  0  0  0  0  0  0  0
   -3.8114   -2.6183   -1.3732 H   0  0  0  0  0  0  0  0  0  0  0  0
    4.7593   -1.9202    1.3793 H   0  0  0  0  0  0  0  0  0  0  0  0
    2.4310   -2.6496    1.1310 H   0  0  0  0  0  0  0  0  0  0  0  0
   -1.7864   -2.0918   -0.3953 H   0  0  0  0  0  0  0  0  0  0  0  0
   -5.0089    0.7845   -1.5138 H   0  0  0  0  0  0  0  0  0  0  0  0
   -4.2228   -2.4877    1.1779 H   0  0  0  0  0  0  0  0  0  0  0  0
    6.2778    1.5041   -1.4793 H   0  0  0  0  0  0  0  0  0  0  0  0
    6.6637   -0.4478    2.3546 H   0  0  0  0  0  0  0  0  0  0  0  0
   -5.7100   -1.4569    2.8586 H   0  0  0  0  0  0  0  0  0  0  0  0
   -6.8356    0.6341    2.4063 H   0  0  0  0  0  0  0  0  0  0  0  0
    8.5692    1.7686   -0.4097 H   0  0  0  0  0  0  0  0  0  0  0  0
   -7.8812    3.5210    0.7538 H   0  0  0  0  0  0  0  0  0  0  0  0
   -6.8998    2.8315    2.0423 H   0  0  0  0  0  0  0  0  0  0  0  0
   -8.3148    1.9223    1.3496 H   0  0  0  0  0  0  0  0  0  0  0  0
  1  8  1  0  0  0  0
  1 17  1  0  0  0  0
  2 22  1  0  0  0  0
  2 26  1  0  0  0  0
  3 18  2  0  0  0  0
  4 12  1  0  0  0  0
  4 18  1  0  0  0  0
  4 32  1  0  0  0  0
  5 10  1  0  0  0  0
  5 17  2  0  0  0  0
  6  7  1  0  0  0  0
  6 21  1  0  0  0  0
  6 39  1  0  0  0  0
  7 23  2  0  0  0  0
  8 10  2  0  0  0  0
  8 11  1  0  0  0  0
  9 11  2  0  0  0  0
  9 14  1  0  0  0  0
  9 16  1  0  0  0  0
 10 15  1  0  0  0  0
 11 27  1  0  0  0  0
 12 13  1  0  0  0  0
 12 28  1  0  0  0  0
 12 29  1  0  0  0  0
 13 19  2  0  0  0  0
 13 20  1  0  0  0  0
 14 15  2  0  0  0  0
 14 30  1  0  0  0  0
 15 31  1  0  0  0  0
 16 21  2  0  0  0  0
 16 23  1  0  0  0  0
 17 18  1  0  0  0  0
 19 22  1  0  0  0  0
 19 33  1  0  0  0  0
 20 24  2  0  0  0  0
 20 34  1  0  0  0  0
 21 35  1  0  0  0  0
 22 25  2  0  0  0  0
 23 36  1  0  0  0  0
 24 25  1  0  0  0  0
 24 37  1  0  0  0  0
 25 38  1  0  0  0  0
 26 40  1  0  0  0  0
 26 41  1  0  0  0  0
 26 42  1  0  0  0  0
M  END
> <PUBCHEM_COMPOUND_CID>
46879803

> <PUBCHEM_CONFORMER_RMSD>
0.8

> <PUBCHEM_CONFORMER_DIVERSEORDER>
1
50
40
39
45
8
21
6
27
51
36
28
47
42
43
9
15
35
49
14
22
10
18
3
4
32
11
30
16
48
19
34
25
23
38
12
46
20
5
2
37
41
44
29
7
17
26
13
33
24
31

> <PUBCHEM_MMFF94_PARTIAL_CHARGES>
37
1 -0.08
10 0.23
11 -0.15
12 0.44
13 -0.14
14 -0.15
15 -0.15
16 -0.05
17 0.29
18 0.71
19 -0.15
2 -0.36
20 -0.15
21 -0.3
22 0.08
23 0.14
24 -0.15
25 -0.15
26 0.28
27 0.15
3 -0.57
30 0.15
31 0.15
32 0.37
33 0.15
34 0.15
35 0.15
36 0.15
37 0.15
38 0.15
39 0.27
4 -0.73
5 -0.57
6 0.3
7 -0.71
8 0.04
9 0.05

> <PUBCHEM_EFFECTIVE_ROTOR_COUNT>
6

> <PUBCHEM_PHARMACOPHORE_FEATURES>
10
1 2 acceptor
1 3 acceptor
1 4 donor
1 5 acceptor
1 6 donor
1 7 acceptor
5 1 5 8 10 17 rings
5 6 7 16 21 23 rings
6 13 19 20 22 24 25 rings
6 8 9 10 11 14 15 rings

> <PUBCHEM_HEAVY_ATOM_COUNT>
26

> <PUBCHEM_ATOM_DEF_STEREO_COUNT>
0

> <PUBCHEM_ATOM_UDEF_STEREO_COUNT>
0

> <PUBCHEM_BOND_DEF_STEREO_COUNT>
0

> <PUBCHEM_BOND_UDEF_STEREO_COUNT>
0

> <PUBCHEM_ISOTOPIC_ATOM_COUNT>
0

> <PUBCHEM_COMPONENT_COUNT>
1

> <PUBCHEM_CACTVS_TAUTO_COUNT>
9

> <PUBCHEM_CONFORMER_ID>
02CB543B00000001

> <PUBCHEM_MMFF94_ENERGY>
60.4969

> <PUBCHEM_FEATURE_SELFOVERLAP>
50.819

> <PUBCHEM_SHAPE_FINGERPRINT>
10 15 18410011022413530161
10066227 112 16271924947967903874
10100884 174 17607251149789712563
10554248 39 13901919916541671988
10577160 183 13830134945246637180
10670039 82 14548742789855986179
10763959 59 14764626443371926370
11315181 36 18335415799369271655
11456790 92 18336537297125008264
12166972 35 12323961284069432678
12539765 74 18271814570972743782
13668630 136 11025794293116247408
13673619 4 14490475300807839407
13782708 43 13695856039784966284
14251764 18 18410008853935158847
14729087 3 17203607099152111312
14765038 42 18187365428232405419
14849402 71 17970353822285046292
14856354 85 18270961361816769471
15142383 8 16128656358661135314
15183329 4 12607407684779887764
15461852 350 17489581290977369151
15716309 27 15719391745890530423
1577012 14 17988920055229629575
16110190 28 17967818266676540087
16994733 274 17632004373612967186
17093844 174 17703504484616250127
17780758 139 17748828523451585097
18681886 176 8862938355789392366
190975 80 17095525136138189754
2026 5 11530480030318997953
20721686 146 17917431990634542189
21130935 74 18409162225713931450
21150785 3 9439402445656827202
21267235 1 17749100077417923342
21403212 168 17240484660147128993
21521721 280 18041559256620302552
21623969 137 17530964691911391858
21781051 124 17240491295650659850
22149856 69 17968098586728911080
22288116 15 11599999964625926885
23522609 53 17896902004352530460
23576562 1 13829266434045132312
24771293 8 18266731575857284100
2838139 119 14476965596873557667
312425 54 17676775297147731411
3178227 256 17676768751744061724
3383291 50 13118007707865751185
3663271 9 18260266347904855835
3711267 37 18059300958892927400
393628 194 16702031863941451809
4015057 19 10159688140278106295
4093350 32 18201721722288213750
4340502 62 16298378064293708754
484989 97 10087340254001206757
4938544 92 18202281429387917319
5028188 123 18341619269721863126
5104073 3 17822861995265793549
54039377 194 11314319343175380505
5758199 1 18334573573240887810
58083652 198 17241041119529604949
59755656 215 13254806741659688492
6328613 192 15697997487666485010
7226269 152 17704076192229255027
9953998 17 17894629245267088813
999808 66 14851605483803071561

> <PUBCHEM_SHAPE_MULTIPOLES>
507.25
23.64
1.83
1.62
7.43
0.3
0.01
10.16
13.2
-2.47
0.32
-1.5
0.03
-1.14

> <PUBCHEM_SHAPE_SELFOVERLAP>
1108.208

> <PUBCHEM_SHAPE_VOLUME>
278.2

> <PUBCHEM_COORDINATE_TYPE>
2
5
10

$$$$
46879804
  -OEChem-05102415083D

 38 41  0     0  0  0  0  0  0999 V2000
    0.6888   -1.7801    0.1694 S   0  0  0  0  0  0  0  0  0  0  0  0
   -6.8238   -1.4509   -1.9234 F   0  0  0  0  0  0  0  0  0  0  0  0
   -2.2208   -2.0147    0.7815 O   0  0  0  0  0  0  0  0  0  0  0  0
    0.1489    0.6141    0.9622 N   0  0  0  0  0  0  0  0  0  0  0  0
   -2.5793    0.1749    1.4554 N   0  0  0  0  0  0  0  0  0  0  0  0
    7.5411   -0.8045   -0.7233 N   0  0  0  0  0  0  0  0  0  0  0  0
    7.7201    0.4677   -1.1177 N   0  0  0  0  0  0  0  0  0  0  0  0
    1.9837   -0.6420    0.1969 C   0  0  0  0  0  0  0  0  0  0  0  0
    4.1979    0.2639   -0.0474 C   0  0  0  0  0  0  0  0  0  0  0  0
    1.5007    0.5891    0.6510 C   0  0  0  0  0  0  0  0  0  0  0  0
    3.3299   -0.8252   -0.1576 C   0  0  0  0  0  0  0  0  0  0  0  0
    3.7407    1.4979    0.4018 C   0  0  0  0  0  0  0  0  0  0  0  0
    5.5810    0.1047   -0.4035 C   0  0  0  0  0  0  0  0  0  0  0  0
    2.3991    1.6734    0.7530 C   0  0  0  0  0  0  0  0  0  0  0  0
   -0.3735   -0.5707    0.7478 C   0  0  0  0  0  0  0  0  0  0  0  0
   -3.9855    0.0297    1.7560 C   0  0  0  0  0  0  0  0  0  0  0  0
   -4.8484    0.3247    0.5632 C   0  0  0  0  0  0  0  0  0  0  0  0
   -1.7482   -0.8635    0.9762 C   0  0  0  0  0  0  0  0  0  0  0  0
    6.2773   -1.0736   -0.2866 C   0  0  0  0  0  0  0  0  0  0  0  0
    6.5193    1.0182   -0.9199 C   0  0  0  0  0  0  0  0  0  0  0  0
   -5.4478   -0.7207   -0.1396 C   0  0  0  0  0  0  0  0  0  0  0  0
   -5.0503    1.6439    0.1575 C   0  0  0  0  0  0  0  0  0  0  0  0
   -6.2490   -0.4468   -1.2481 C   0  0  0  0  0  0  0  0  0  0  0  0
   -5.8513    1.9178   -0.9512 C   0  0  0  0  0  0  0  0  0  0  0  0
   -6.4509    0.8725   -1.6538 C   0  0  0  0  0  0  0  0  0  0  0  0
    3.6604   -1.7951   -0.5186 H   0  0  0  0  0  0  0  0  0  0  0  0
    4.4106    2.3496    0.4967 H   0  0  0  0  0  0  0  0  0  0  0  0
    2.0525    2.6413    1.1041 H   0  0  0  0  0  0  0  0  0  0  0  0
   -4.1682   -0.9839    2.1306 H   0  0  0  0  0  0  0  0  0  0  0  0
   -4.2244    0.7212    2.5720 H   0  0  0  0  0  0  0  0  0  0  0  0
   -2.1650    1.0925    1.5943 H   0  0  0  0  0  0  0  0  0  0  0  0
    6.0113   -2.0611    0.0646 H   0  0  0  0  0  0  0  0  0  0  0  0
    6.3856    2.0625   -1.1656 H   0  0  0  0  0  0  0  0  0  0  0  0
   -5.2980   -1.7532    0.1640 H   0  0  0  0  0  0  0  0  0  0  0  0
   -4.5884    2.4664    0.6972 H   0  0  0  0  0  0  0  0  0  0  0  0
   -6.0083    2.9450   -1.2673 H   0  0  0  0  0  0  0  0  0  0  0  0
    8.3283   -1.4388   -0.7773 H   0  0  0  0  0  0  0  0  0  0  0  0
   -7.0745    1.0854   -2.5170 H   0  0  0  0  0  0  0  0  0  0  0  0
  1  8  1  0  0  0  0
  1 15  1  0  0  0  0
  2 23  1  0  0  0  0
  3 18  2  0  0  0  0
  4 10  1  0  0  0  0
  4 15  2  0  0  0  0
  5 16  1  0  0  0  0
  5 18  1  0  0  0  0
  5 31  1  0  0  0  0
  6  7  1  0  0  0  0
  6 19  1  0  0  0  0
  6 37  1  0  0  0  0
  7 20  2  0  0  0  0
  8 10  2  0  0  0  0
  8 11  1  0  0  0  0
  9 11  2  0  0  0  0
  9 12  1  0  0  0  0
  9 13  1  0  0  0  0
 10 14  1  0  0  0  0
 11 26  1  0  0  0  0
 12 14  2  0  0  0  0
 12 27  1  0  0  0  0
 13 19  2  0  0  0  0
 13 20  1  0  0  0  0
 14 28  1  0  0  0  0
 15 18  1  0  0  0  0
 16 17  1  0  0  0  0
 16 29  1  0  0  0  0
 16 30  1  0  0  0  0
 17 21  2  0  0  0  0
 17 22  1  0  0  0  0
 19 32  1  0  0  0  0
 20 33  1  0  0  0  0
 21 23  1  0  0  0  0
 21 34  1  0  0  0  0
 22 24  2  0  0  0  0
 22 35  1  0  0  0  0
 23 25  2  0  0  0  0
 24 25  1  0  0  0  0
 24 36  1  0  0  0  0
 25 38  1  0  0  0  0
M  END
> <PUBCHEM_COMPOUND_CID>
46879804

> <PUBCHEM_CONFORMER_RMSD>
0.8

> <PUBCHEM_CONFORMER_DIVERSEORDER>
1
24
29
5
18
25
28
8
16
27
11
2
14
15
26
21
23
12
20
9
4
10
3
22
6
19
17
13
7

> <PUBCHEM_MMFF94_PARTIAL_CHARGES>
36
1 -0.08
10 0.23
11 -0.15
12 -0.15
13 -0.05
14 -0.15
15 0.29
16 0.44
17 -0.14
18 0.71
19 -0.3
2 -0.19
20 0.14
21 -0.15
22 -0.15
23 0.19
24 -0.15
25 -0.15
26 0.15
27 0.15
28 0.15
3 -0.57
31 0.37
32 0.15
33 0.15
34 0.15
35 0.15
36 0.15
37 0.27
38 0.15
4 -0.57
5 -0.73
6 0.3
7 -0.71
8 0.04
9 0.05

> <PUBCHEM_EFFECTIVE_ROTOR_COUNT>
5

> <PUBCHEM_PHARMACOPHORE_FEATURES>
9
1 3 acceptor
1 4 acceptor
1 5 donor
1 6 donor
1 7 acceptor
5 1 4 8 10 15 rings
5 6 7 13 19 20 rings
6 17 21 22 23 24 25 rings
6 8 9 10 11 12 14 rings

> <PUBCHEM_HEAVY_ATOM_COUNT>
25

> <PUBCHEM_ATOM_DEF_STEREO_COUNT>
0

> <PUBCHEM_ATOM_UDEF_STEREO_COUNT>
0

> <PUBCHEM_BOND_DEF_STEREO_COUNT>
0

> <PUBCHEM_BOND_UDEF_STEREO_COUNT>
0

> <PUBCHEM_ISOTOPIC_ATOM_COUNT>
0

> <PUBCHEM_COMPONENT_COUNT>
1

> <PUBCHEM_CACTVS_TAUTO_COUNT>
9

> <PUBCHEM_CONFORMER_ID>
02CB543C00000001

> <PUBCHEM_MMFF94_ENERGY>
46.1918

> <PUBCHEM_FEATURE_SELFOVERLAP>
45.744

> <PUBCHEM_SHAPE_FINGERPRINT>
10 15 12179840598107837559
10066227 112 17530969107164068076
10100884 174 10666671865831486585
10554248 39 18261679190735418534
10577160 183 18335127666592482650
10670039 82 18114177515251551421
10693767 8 17917435251332417254
10763959 59 18113902684351890308
10835480 77 18336833112849774312
11089746 13 18409729560300518656
12166972 35 15697999652198081842
12236239 1 17132119039210395096
12539765 74 14346089607682346370
12838862 33 18413384346780760338
13668630 136 16988846081130641605
13782708 43 14620799262880698726
14251752 14 18186803569632596234
14729087 3 16732984236537198004
15142383 8 17676205776273907852
15183329 4 18410571773338369322
15461852 350 15719393967201278947
15716309 27 12463568482828589147
16110190 28 8286193959777613977
16994733 274 16226620709923762156
17093844 174 16371014039300588833
17780758 139 9079114471625914103
1818759 1 10231767678474794644
18681886 176 17489299802261493346
19377110 9 7925640990200639542
21054139 6 16845573106124350047
21150785 3 17489590078137642592
21521721 280 10809636934915890742
21623969 137 9511461130247625096
21709351 56 18410856598632105417
22288116 15 18341893030679210655
23559900 14 18129942402832419832
23569943 247 16053819070290183286
23576562 1 18190183575566063316
2838139 119 18186803573822477725
3014965 18 18260548879928915218
335352 9 18342747325997654374
4015057 19 17917433184935533897
4340502 62 11887677256585700748
465052 167 11240001131887471792
484989 97 17987796461789114739
4938544 92 14129060327178886427
5758199 1 11963395159028384704
59682541 35 9511451217958588630
59755656 215 18408606929386196370
6328613 192 17749115516944722596
7226269 152 15719109141807016957
7495541 125 12823289109002255306
9953998 17 9295293841866427007
999808 66 12967129415203253653

> <PUBCHEM_SHAPE_MULTIPOLES>
485.27
22.14
1.74
1.4
6.02
0.07
-0.15
3.97
-12.22
-0.9
-0.07
-2.06
0.01
0.29

> <PUBCHEM_SHAPE_SELFOVERLAP>
1066.627

> <PUBCHEM_SHAPE_VOLUME>
266

> <PUBCHEM_COORDINATE_TYPE>
2
5
10

$$$$
46879805
  -OEChem-05102415083D

 45 48  0     0  0  0  0  0  0999 V2000
   -0.2682    1.1406   -1.6674 S   0  0  0  0  0  0  0  0  0  0  0  0
   -2.7412    3.1216   -1.5314 O   0  0  0  0  0  0  0  0  0  0  0  0
   -1.0190   -3.3646   -0.1652 O   0  0  0  0  0  0  0  0  0  0  0  0
   -3.5804    1.7089    0.1311 N   0  0  0  0  0  0  0  0  0  0  0  0
   -0.5754    2.0022    0.7442 N   0  0  0  0  0  0  0  0  0  0  0  0
    6.2088   -1.3170   -0.8232 N   0  0  0  0  0  0  0  0  0  0  0  0
    6.8297   -0.5225    0.0655 N   0  0  0  0  0  0  0  0  0  0  0  0
   -3.3672    0.7142    1.1804 C   0  0  0  0  0  0  0  0  0  0  0  0
   -3.3774   -0.6856    0.6379 C   0  0  0  0  0  0  0  0  0  0  0  0
    1.0734    0.9926   -0.5945 C   0  0  0  0  0  0  0  0  0  0  0  0
    0.7184    1.5094    0.6553 C   0  0  0  0  0  0  0  0  0  0  0  0
    3.2759    0.4493    0.2036 C   0  0  0  0  0  0  0  0  0  0  0  0
   -1.1805    1.8596   -0.4117 C   0  0  0  0  0  0  0  0  0  0  0  0
   -2.5247    2.2711   -0.6379 C   0  0  0  0  0  0  0  0  0  0  0  0
    2.3481    0.4577   -0.8409 C   0  0  0  0  0  0  0  0  0  0  0  0
    1.6749    1.4887    1.6935 C   0  0  0  0  0  0  0  0  0  0  0  0
    2.9458    0.9575    1.4551 C   0  0  0  0  0  0  0  0  0  0  0  0
   -4.9643    2.1032   -0.0919 C   0  0  0  0  0  0  0  0  0  0  0  0
    4.5880   -0.0923   -0.0206 C   0  0  0  0  0  0  0  0  0  0  0  0
   -2.1792   -1.3839    0.4871 C   0  0  0  0  0  0  0  0  0  0  0  0
   -4.5849   -1.2879    0.2840 C   0  0  0  0  0  0  0  0  0  0  0  0
   -2.1884   -2.6842   -0.0173 C   0  0  0  0  0  0  0  0  0  0  0  0
   -4.5941   -2.5882   -0.2208 C   0  0  0  0  0  0  0  0  0  0  0  0
   -3.3959   -3.2866   -0.3712 C   0  0  0  0  0  0  0  0  0  0  0  0
    4.8653   -1.0991   -0.9127 C   0  0  0  0  0  0  0  0  0  0  0  0
    5.8345    0.2234    0.5525 C   0  0  0  0  0  0  0  0  0  0  0  0
    0.1781   -2.6883    0.2164 C   0  0  0  0  0  0  0  0  0  0  0  0
   -4.1543    0.8188    1.9384 H   0  0  0  0  0  0  0  0  0  0  0  0
   -2.4374    0.9113    1.7186 H   0  0  0  0  0  0  0  0  0  0  0  0
    2.5862    0.0781   -1.8305 H   0  0  0  0  0  0  0  0  0  0  0  0
    1.4267    1.8816    2.6754 H   0  0  0  0  0  0  0  0  0  0  0  0
    3.6596    0.9491    2.2758 H   0  0  0  0  0  0  0  0  0  0  0  0
   -5.0200    2.9778   -0.7457 H   0  0  0  0  0  0  0  0  0  0  0  0
   -5.4343    2.3546    0.8631 H   0  0  0  0  0  0  0  0  0  0  0  0
   -5.5040    1.2857   -0.5738 H   0  0  0  0  0  0  0  0  0  0  0  0
   -1.2704   -0.8816    0.7948 H   0  0  0  0  0  0  0  0  0  0  0  0
   -5.5300   -0.7695    0.4144 H   0  0  0  0  0  0  0  0  0  0  0  0
   -5.5345   -3.0591   -0.4918 H   0  0  0  0  0  0  0  0  0  0  0  0
   -3.4095   -4.2996   -0.7639 H   0  0  0  0  0  0  0  0  0  0  0  0
    4.2535   -1.6818   -1.5877 H   0  0  0  0  0  0  0  0  0  0  0  0
    6.0680    0.9658    1.3028 H   0  0  0  0  0  0  0  0  0  0  0  0
    6.7648   -1.9902   -1.3354 H   0  0  0  0  0  0  0  0  0  0  0  0
    0.3622   -1.8253   -0.4263 H   0  0  0  0  0  0  0  0  0  0  0  0
    0.1813   -2.4312    1.2809 H   0  0  0  0  0  0  0  0  0  0  0  0
    1.0073   -3.3853    0.0561 H   0  0  0  0  0  0  0  0  0  0  0  0
  1 10  1  0  0  0  0
  1 13  1  0  0  0  0
  2 14  2  0  0  0  0
  3 22  1  0  0  0  0
  3 27  1  0  0  0  0
  4  8  1  0  0  0  0
  4 14  1  0  0  0  0
  4 18  1  0  0  0  0
  5 11  1  0  0  0  0
  5 13  2  0  0  0  0
  6  7  1  0  0  0  0
  6 25  1  0  0  0  0
  6 42  1  0  0  0  0
  7 26  2  0  0  0  0
  8  9  1  0  0  0  0
  8 28  1  0  0  0  0
  8 29  1  0  0  0  0
  9 20  2  0  0  0  0
  9 21  1  0  0  0  0
 10 11  2  0  0  0  0
 10 15  1  0  0  0  0
 11 16  1  0  0  0  0
 12 15  2  0  0  0  0
 12 17  1  0  0  0  0
 12 19  1  0  0  0  0
 13 14  1  0  0  0  0
 15 30  1  0  0  0  0
 16 17  2  0  0  0  0
 16 31  1  0  0  0  0
 17 32  1  0  0  0  0
 18 33  1  0  0  0  0
 18 34  1  0  0  0  0
 18 35  1  0  0  0  0
 19 25  2  0  0  0  0
 19 26  1  0  0  0  0
 20 22  1  0  0  0  0
 20 36  1  0  0  0  0
 21 23  2  0  0  0  0
 21 37  1  0  0  0  0
 22 24  2  0  0  0  0
 23 24  1  0  0  0  0
 23 38  1  0  0  0  0
 24 39  1  0  0  0  0
 25 40  1  0  0  0  0
 26 41  1  0  0  0  0
 27 43  1  0  0  0  0
 27 44  1  0  0  0  0
 27 45  1  0  0  0  0
M  END
> <PUBCHEM_COMPOUND_CID>
46879805

> <PUBCHEM_CONFORMER_RMSD>
0.8

> <PUBCHEM_CONFORMER_DIVERSEORDER>
1
75
246
119
187
123
236
46
100
213
266
242
80
198
253
243
271
235
183
102
163
162
226
20
205
104
239
127
106
159
60
168
257
215
173
78
201
220
47
209
202
178
176
181
110
142
230
218
35
256
195
57
70
77
184
139
105
177
71
22
164
267
171
254
151
272
229
84
157
197
69
263
66
172
160
216
179
223
265
29
185
5
95
206
68
121
17
244
98
221
79
103
76
170
45
207
113
188
7
135
56
251
269
81
129
41
31
258
112
273
111
262
125
166
10
217
38
146
82
108
154
13
61
73
186
147
19
33
238
23
138
158
237
64
224
137
14
131
264
28
192
260
114
277
50
132
30
24
140
234
241
27
54
97
92
255
65
126
232
252
53
42
274
155
12
203
191
52
25
225
247
11
212
15
8
175
259
193
32
72
189
210
161
200
196
194
275
214
219
26
143
16
120
122
174
182
136
261
59
228
270
4
222
133
36
141
6
208
107
153
250
96
156
63
169
211
167
39
37
88
90
128
245
34
248
74
49
233
149
21
130
87
150
116
44
148
117
58
62
83
86
227
40
144
99
51
231
165
85
109
199
94
180
124
152
18
55
93
249
89
43
204
276
101
9
3
145
268
240
118
2
134
91
190
115
67
48

> <PUBCHEM_MMFF94_PARTIAL_CHARGES>
37
1 -0.08
10 0.04
11 0.23
12 0.05
13 0.29
14 0.71
15 -0.15
16 -0.15
17 -0.15
18 0.3
19 -0.05
2 -0.57
20 -0.15
21 -0.15
22 0.08
23 -0.15
24 -0.15
25 -0.3
26 0.14
27 0.28
3 -0.36
30 0.15
31 0.15
32 0.15
36 0.15
37 0.15
38 0.15
39 0.15
4 -0.66
40 0.15
41 0.15
42 0.27
5 -0.57
6 0.3
7 -0.71
8 0.44
9 -0.14

> <PUBCHEM_EFFECTIVE_ROTOR_COUNT>
6

> <PUBCHEM_PHARMACOPHORE_FEATURES>
9
1 2 acceptor
1 3 acceptor
1 5 acceptor
1 6 donor
1 7 acceptor
5 1 5 10 11 13 rings
5 6 7 19 25 26 rings
6 10 11 12 15 16 17 rings
6 9 20 21 22 23 24 rings

> <PUBCHEM_HEAVY_ATOM_COUNT>
27

> <PUBCHEM_ATOM_DEF_STEREO_COUNT>
0

> <PUBCHEM_ATOM_UDEF_STEREO_COUNT>
0

> <PUBCHEM_BOND_DEF_STEREO_COUNT>
0

> <PUBCHEM_BOND_UDEF_STEREO_COUNT>
0

> <PUBCHEM_ISOTOPIC_ATOM_COUNT>
0

> <PUBCHEM_COMPONENT_COUNT>
1

> <PUBCHEM_CACTVS_TAUTO_COUNT>
5

> <PUBCHEM_CONFORMER_ID>
02CB543D00000001

> <PUBCHEM_MMFF94_ENERGY>
74.7831

> <PUBCHEM_FEATURE_SELFOVERLAP>
45.745

> <PUBCHEM_SHAPE_FINGERPRINT>
10165383 225 18267590117959835113
10693767 8 17267768194734837223
11014199 57 17904202877398829458
11045977 3 18131066035181152376
11524674 6 18059570244028901271
11578080 2 16879613896749246023
11796584 16 18340769239511126056
12166972 35 17679297727125138487
12293681 4 17917999330118230968
12422481 6 18197523868534420835
12522641 33 18117830003328535789
12633257 1 17916323769149901233
12643181 29 18340202986780887434
13402501 40 18272092690609720374
14114206 34 16805593785597353413
14202776 33 17603596192438024292
14251751 18 18411141342411276732
14251751 93 18260266322002786394
14866123 147 18410858772223797587
14910302 57 18341885350681261648
14950920 106 16629968857616885227
15230672 131 18118965785564722538
15537594 2 17822010869791002624
15927050 60 18197212552040138223
17492 89 17690842680452139771
17627616 140 18191023400465798074
1813 80 17677320753324685932
20600515 1 18058468559100960392
20771845 165 17536872174640603277
21236236 1 18411981368667364518
21279426 13 18270687454989256342
21623969 137 17561085791953829998
23559900 14 18341606027531197552
23569943 247 14475859381345529468
244849 19 17416947569335298586
24893992 56 18189329251892523279
338550 245 18188217516006464862
397830 11 18271230725866595472
508706 21 18410854356533076807
5265222 85 18335997432119109788
552612 73 18127966619778093256
56633871 153 18053110802785966227
59755656 215 18411697665061738575
59755656 520 18269271275549450421
602551 16 18409445903907708888
6138700 20 18409448129023125683
6437827 68 18338235943283433938

> <PUBCHEM_SHAPE_MULTIPOLES>
527.83
12.59
3.75
1.25
16.53
1.73
0.01
4.3
0.18
-5.46
0.65
0.33
-0.65
1.06

> <PUBCHEM_SHAPE_SELFOVERLAP>
1150.256

> <PUBCHEM_SHAPE_VOLUME>
291.4

> <PUBCHEM_COORDINATE_TYPE>
2
5
10

$$$$
46879806
  -OEChem-05102415083D

 48 51  0     0  0  0  0  0  0999 V2000
    0.8614   -0.4829   -1.3268 S   0  0  0  0  0  0  0  0  0  0  0  0
   -1.5714    1.3211   -2.2681 O   0  0  0  0  0  0  0  0  0  0  0  0
   -6.8101   -1.4176    1.6584 O   0  0  0  0  0  0  0  0  0  0  0  0
   -2.1696    1.4167   -0.0104 N   0  0  0  0  0  0  0  0  0  0  0  0
    0.8910    1.7655   -0.0632 N   0  0  0  0  0  0  0  0  0  0  0  0
    7.3961   -2.3688    0.2365 N   0  0  0  0  0  0  0  0  0  0  0  0
    8.1334   -1.2475    0.3109 N   0  0  0  0  0  0  0  0  0  0  0  0
   -3.5717    1.6934   -0.2901 C   0  0  0  0  0  0  0  0  0  0  0  0
   -1.8114    1.3323    1.4039 C   0  0  0  0  0  0  0  0  0  0  0  0
   -4.3887    0.4358   -0.3630 C   0  0  0  0  0  0  0  0  0  0  0  0
   -1.2318    1.2434   -1.0651 C   0  0  0  0  0  0  0  0  0  0  0  0
    0.1313    0.9594   -0.7674 C   0  0  0  0  0  0  0  0  0  0  0  0
    2.3392   -0.0163   -0.5710 C   0  0  0  0  0  0  0  0  0  0  0  0
    2.1606    1.2195    0.0583 C   0  0  0  0  0  0  0  0  0  0  0  0
    4.6319   -0.1044    0.1493 C   0  0  0  0  0  0  0  0  0  0  0  0
    3.5680   -0.6949   -0.5372 C   0  0  0  0  0  0  0  0  0  0  0  0
   -1.4042    2.6834    1.9544 C   0  0  0  0  0  0  0  0  0  0  0  0
   -5.2307    0.0892    0.6937 C   0  0  0  0  0  0  0  0  0  0  0  0
   -4.3055   -0.3861   -1.4870 C   0  0  0  0  0  0  0  0  0  0  0  0
    3.2521    1.7940    0.7451 C   0  0  0  0  0  0  0  0  0  0  0  0
    4.4782    1.1238    0.7828 C   0  0  0  0  0  0  0  0  0  0  0  0
    5.9009   -0.7770    0.2000 C   0  0  0  0  0  0  0  0  0  0  0  0
   -5.9895   -1.0794    0.6266 C   0  0  0  0  0  0  0  0  0  0  0  0
   -5.0641   -1.5548   -1.5541 C   0  0  0  0  0  0  0  0  0  0  0  0
   -5.9063   -1.9013   -0.4974 C   0  0  0  0  0  0  0  0  0  0  0  0
    6.0529   -2.1417    0.1681 C   0  0  0  0  0  0  0  0  0  0  0  0
    7.2145   -0.2785    0.2881 C   0  0  0  0  0  0  0  0  0  0  0  0
   -7.5565   -2.6263    1.5247 C   0  0  0  0  0  0  0  0  0  0  0  0
   -3.6514    2.2196   -1.2495 H   0  0  0  0  0  0  0  0  0  0  0  0
   -3.9638    2.3851    0.4650 H   0  0  0  0  0  0  0  0  0  0  0  0
   -2.6553    0.9285    1.9731 H   0  0  0  0  0  0  0  0  0  0  0  0
   -0.9861    0.6246    1.5305 H   0  0  0  0  0  0  0  0  0  0  0  0
    3.6672   -1.6469   -1.0511 H   0  0  0  0  0  0  0  0  0  0  0  0
   -1.0731    2.5846    2.9930 H   0  0  0  0  0  0  0  0  0  0  0  0
   -2.2496    3.3795    1.9388 H   0  0  0  0  0  0  0  0  0  0  0  0
   -0.5974    3.1473    1.3824 H   0  0  0  0  0  0  0  0  0  0  0  0
   -5.3008    0.7242    1.5735 H   0  0  0  0  0  0  0  0  0  0  0  0
   -3.6677   -0.1297   -2.3266 H   0  0  0  0  0  0  0  0  0  0  0  0
    3.1421    2.7524    1.2447 H   0  0  0  0  0  0  0  0  0  0  0  0
    5.2992    1.5879    1.3248 H   0  0  0  0  0  0  0  0  0  0  0  0
   -5.0008   -2.1927   -2.4310 H   0  0  0  0  0  0  0  0  0  0  0  0
   -6.4676   -2.8219   -0.6154 H   0  0  0  0  0  0  0  0  0  0  0  0
    5.3543   -2.9652    0.1124 H   0  0  0  0  0  0  0  0  0  0  0  0
    7.5490    0.7485    0.3343 H   0  0  0  0  0  0  0  0  0  0  0  0
    7.8765   -3.2599    0.2388 H   0  0  0  0  0  0  0  0  0  0  0  0
   -8.2589   -2.5747    0.6858 H   0  0  0  0  0  0  0  0  0  0  0  0
   -6.8994   -3.5003    1.4628 H   0  0  0  0  0  0  0  0  0  0  0  0
   -8.1540   -2.7396    2.4352 H   0  0  0  0  0  0  0  0  0  0  0  0
  1 12  1  0  0  0  0
  1 13  1  0  0  0  0
  2 11  2  0  0  0  0
  3 23  1  0  0  0  0
  3 28  1  0  0  0  0
  4  8  1  0  0  0  0
  4  9  1  0  0  0  0
  4 11  1  0  0  0  0
  5 12  2  0  0  0  0
  5 14  1  0  0  0  0
  6  7  1  0  0  0  0
  6 26  1  0  0  0  0
  6 45  1  0  0  0  0
  7 27  2  0  0  0  0
  8 10  1  0  0  0  0
  8 29  1  0  0  0  0
  8 30  1  0  0  0  0
  9 17  1  0  0  0  0
  9 31  1  0  0  0  0
  9 32  1  0  0  0  0
 10 18  2  0  0  0  0
 10 19  1  0  0  0  0
 11 12  1  0  0  0  0
 13 14  2  0  0  0  0
 13 16  1  0  0  0  0
 14 20  1  0  0  0  0
 15 16  2  0  0  0  0
 15 21  1  0  0  0  0
 15 22  1  0  0  0  0
 16 33  1  0  0  0  0
 17 34  1  0  0  0  0
 17 35  1  0  0  0  0
 17 36  1  0  0  0  0
 18 23  1  0  0  0  0
 18 37  1  0  0  0  0
 19 24  2  0  0  0  0
 19 38  1  0  0  0  0
 20 21  2  0  0  0  0
 20 39  1  0  0  0  0
 21 40  1  0  0  0  0
 22 26  2  0  0  0  0
 22 27  1  0  0  0  0
 23 25  2  0  0  0  0
 24 25  1  0  0  0  0
 24 41  1  0  0  0  0
 25 42  1  0  0  0  0
 26 43  1  0  0  0  0
 27 44  1  0  0  0  0
 28 46  1  0  0  0  0
 28 47  1  0  0  0  0
 28 48  1  0  0  0  0
M  END
> <PUBCHEM_COMPOUND_CID>
46879806

> <PUBCHEM_CONFORMER_RMSD>
0.8

> <PUBCHEM_CONFORMER_DIVERSEORDER>
2
364
196
165
238
287
343
187
332
69
128
112
357
53
320
297
363
34
305
269
352
248
354
192
282
333
188
272
64
381
233
264
342
144
195
368
316
25
204
334
253
91
182
145
166
158
340
325
221
274
255
102
346
170
266
167
294
301
71
116
275
89
318
203
300
321
78
82
77
49
149
258
119
311
303
50
312
40
366
10
173
262
140
293
265
261
185
55
292
341
84
143
115
257
162
360
291
271
331
358
240
313
47
198
281
260
109
114
380
13
372
307
35
136
230
213
212
16
244
200
209
237
32
383
322
90
277
124
199
138
236
378
72
132
20
231
180
324
348
18
179
99
67
96
242
217
15
133
184
154
130
79
276
336
246
296
36
229
227
164
222
319
356
92
235
263
283
314
278
87
268
353
19
52
85
317
250
101
153
299
241
121
23
156
226
243
290
338
183
147
374
270
177
100
288
206
225
289
137
302
219
308
330
76
210
103
197
45
379
126
328
122
214
30
347
12
193
377
247
65
273
350
135
234
367
329
160
326
29
323
232
113
110
286
373
74
382
24
111
178
309
228
146
223
57
249
376
208
94
215
259
295
106
95
245
216
304
224
190
21
365
369
60
280
31
220
371
375
172
155
56
54
6
202
159
279
186
359
191
14
108
33
88
93
4
42
327
310
11
97
3
362
120
174
107
345
104
152
335
218
80
344
205
129
61
181
59
284
256
361
349
169
81
58
251
254
66
337
201
157
7
148
355
267
98
306
48
51
131
123
175
68
75
351
62
125
141
41
339
8
134
252
70
39
239
171
298
315
161
211
151
189
26
17
285
117
5
83
163
73
176
43
44
150
142
118
105
384
38
37
46
63
168
27
9
207
194
370
86
127
1
22
28
139

> <PUBCHEM_MMFF94_PARTIAL_CHARGES>
37
1 -0.08
10 -0.14
11 0.71
12 0.29
13 0.04
14 0.23
15 0.05
16 -0.15
18 -0.15
19 -0.15
2 -0.57
20 -0.15
21 -0.15
22 -0.05
23 0.08
24 -0.15
25 -0.15
26 -0.3
27 0.14
28 0.28
3 -0.36
33 0.15
37 0.15
38 0.15
39 0.15
4 -0.66
40 0.15
41 0.15
42 0.15
43 0.15
44 0.15
45 0.27
5 -0.57
6 0.3
7 -0.71
8 0.44
9 0.3

> <PUBCHEM_EFFECTIVE_ROTOR_COUNT>
7

> <PUBCHEM_PHARMACOPHORE_FEATURES>
9
1 2 acceptor
1 3 acceptor
1 5 acceptor
1 6 donor
1 7 acceptor
5 1 5 12 13 14 rings
5 6 7 22 26 27 rings
6 10 18 19 23 24 25 rings
6 13 14 15 16 20 21 rings

> <PUBCHEM_HEAVY_ATOM_COUNT>
28

> <PUBCHEM_ATOM_DEF_STEREO_COUNT>
0

> <PUBCHEM_ATOM_UDEF_STEREO_COUNT>
0

> <PUBCHEM_BOND_DEF_STEREO_COUNT>
0

> <PUBCHEM_BOND_UDEF_STEREO_COUNT>
0

> <PUBCHEM_ISOTOPIC_ATOM_COUNT>
0

> <PUBCHEM_COMPONENT_COUNT>
1

> <PUBCHEM_CACTVS_TAUTO_COUNT>
5

> <PUBCHEM_CONFORMER_ID>
02CB543E00000002

> <PUBCHEM_MMFF94_ENERGY>
73.4147

> <PUBCHEM_FEATURE_SELFOVERLAP>
45.745

> <PUBCHEM_SHAPE_FINGERPRINT>
10 15 16487248889993850792
10066227 112 8862943874806796282
10670039 82 12107779714505133191
10674148 151 17313104155881939801
11135609 99 18336550507779739118
12166972 35 18408885153009860724
12596602 18 18343013360044807056
12616971 3 16845279567091283676
13540713 4 16485305914992334861
13668630 136 17530683234130114643
13673619 4 18408038515933908932
13685833 64 18412540995096612516
13782708 43 18114455674560488410
13911987 19 12973881507799163569
14556957 393 14490480716382389734
14849402 71 17631724002385621888
14931854 50 13695581161719812135
15238133 3 13398627294720589168
15352257 5 18410009927682478206
15510800 12 17968385640641682963
16992779 147 17487607770395531592
16994733 274 11095872766646710894
17780758 139 18060420188609264593
18335252 98 18334295388488492820
18643901 69 17022903476415601491
20028762 73 18059850679945890510
20105231 36 17561371677978291150
2026 5 18113616798781806115
21033650 10 15791724149501262517
21130935 74 18337671894108282290
21150785 3 15502375634195163390
21267235 1 18130787829412655396
21424621 283 12103847860438428748
21756936 100 12895066319581342613
21781051 124 18270695199279690606
21781055 127 14836139783976521288
22288116 15 13190348989141143401
23389318 12 17458352961736110478
23522609 53 16843884381145737416
23569943 247 17612591121726288954
23576562 1 11459009613801681083
3178227 256 18131070437796677214
3383291 50 18333448767902684930
392239 28 17703792548220154491
4015057 19 17023198144493031820
44802255 64 10881409720297003457
465052 167 18341894083061852772
5104073 3 16844176640795286278
5385378 56 14620521090997824076
5718773 13 18260833726138396579
58083652 198 17632002139887711489
6009941 240 18335981974880464469
636775 8 18338241454269846158
6376802 90 17974849471758796093
9896288 288 17416974923850494609
999808 66 18409446981449056998

> <PUBCHEM_SHAPE_MULTIPOLES>
548.41
21.93
2.58
1.56
10.15
0.09
0.08
19.99
-7.56
-0.89
-0.91
-2.58
-0.11
0.74

> <PUBCHEM_SHAPE_SELFOVERLAP>
1188.448

> <PUBCHEM_SHAPE_VOLUME>
303.4

> <PUBCHEM_COORDINATE_TYPE>
2
5
10

$$$$
52935500
  -OEChem-05102415083D

 44 47  0     0  0  0  0  0  0999 V2000
   -1.7038    0.3658   -1.9814 O   0  0  0  0  0  0  0  0  0  0  0  0
   -6.3800    2.2998   -0.1562 O   0  0  0  0  0  0  0  0  0  0  0  0
    0.9805    0.2498   -1.0419 N   0  0  0  0  0  0  0  0  0  0  0  0
   -2.2595   -1.5561   -0.8090 N   0  0  0  0  0  0  0  0  0  0  0  0
    7.5153    1.6293   -0.4021 N   0  0  0  0  0  0  0  0  0  0  0  0
    7.8556    1.2119    0.8293 N   0  0  0  0  0  0  0  0  0  0  0  0
    2.1621   -0.1050   -0.4307 C   0  0  0  0  0  0  0  0  0  0  0  0
    1.9149   -1.2725    0.2949 C   0  0  0  0  0  0  0  0  0  0  0  0
   -0.0021   -0.6508   -0.7289 C   0  0  0  0  0  0  0  0  0  0  0  0
    0.5457   -1.6053    0.0968 C   0  0  0  0  0  0  0  0  0  0  0  0
    3.4178    0.5117   -0.4643 C   0  0  0  0  0  0  0  0  0  0  0  0
    4.4503   -0.0836    0.2659 C   0  0  0  0  0  0  0  0  0  0  0  0
    2.9710   -1.8542    1.0240 C   0  0  0  0  0  0  0  0  0  0  0  0
    4.2326   -1.2484    0.9993 C   0  0  0  0  0  0  0  0  0  0  0  0
   -1.3443   -0.5587   -1.2094 C   0  0  0  0  0  0  0  0  0  0  0  0
    5.7557    0.5169    0.2592 C   0  0  0  0  0  0  0  0  0  0  0  0
   -3.6418   -1.6139   -1.2271 C   0  0  0  0  0  0  0  0  0  0  0  0
   -4.5435   -0.8614   -0.2918 C   0  0  0  0  0  0  0  0  0  0  0  0
    6.2674    1.2395   -0.7909 C   0  0  0  0  0  0  0  0  0  0  0  0
   -5.0498    0.3843   -0.6629 C   0  0  0  0  0  0  0  0  0  0  0  0
    6.7768    0.5330    1.2282 C   0  0  0  0  0  0  0  0  0  0  0  0
   -4.8744   -1.4074    0.9485 C   0  0  0  0  0  0  0  0  0  0  0  0
   -5.8872    1.0840    0.2061 C   0  0  0  0  0  0  0  0  0  0  0  0
   -5.7115   -0.7077    1.8175 C   0  0  0  0  0  0  0  0  0  0  0  0
   -6.2182    0.5379    1.4464 C   0  0  0  0  0  0  0  0  0  0  0  0
   -7.2294    2.9612    0.7805 C   0  0  0  0  0  0  0  0  0  0  0  0
    0.8597    1.0590   -1.6354 H   0  0  0  0  0  0  0  0  0  0  0  0
    0.0398   -2.4595    0.5259 H   0  0  0  0  0  0  0  0  0  0  0  0
    3.5531    1.4257   -1.0341 H   0  0  0  0  0  0  0  0  0  0  0  0
    2.8153   -2.7628    1.5986 H   0  0  0  0  0  0  0  0  0  0  0  0
    5.0354   -1.7180    1.5639 H   0  0  0  0  0  0  0  0  0  0  0  0
   -3.9350   -2.6693   -1.2625 H   0  0  0  0  0  0  0  0  0  0  0  0
   -3.7233   -1.2242   -2.2482 H   0  0  0  0  0  0  0  0  0  0  0  0
   -1.9503   -2.2877   -0.1778 H   0  0  0  0  0  0  0  0  0  0  0  0
    5.8820    1.5073   -1.7651 H   0  0  0  0  0  0  0  0  0  0  0  0
   -4.7952    0.8176   -1.6270 H   0  0  0  0  0  0  0  0  0  0  0  0
    6.7867    0.0834    2.2113 H   0  0  0  0  0  0  0  0  0  0  0  0
   -4.4858   -2.3770    1.2485 H   0  0  0  0  0  0  0  0  0  0  0  0
   -5.9684   -1.1337    2.7831 H   0  0  0  0  0  0  0  0  0  0  0  0
   -6.8624    1.0269    2.1691 H   0  0  0  0  0  0  0  0  0  0  0  0
    8.1864    2.1775   -0.9254 H   0  0  0  0  0  0  0  0  0  0  0  0
   -8.1467    2.3915    0.9639 H   0  0  0  0  0  0  0  0  0  0  0  0
   -6.6969    3.2005    1.7073 H   0  0  0  0  0  0  0  0  0  0  0  0
   -7.5289    3.9128    0.3292 H   0  0  0  0  0  0  0  0  0  0  0  0
  1 15  2  0  0  0  0
  2 23  1  0  0  0  0
  2 26  1  0  0  0  0
  3  7  1  0  0  0  0
  3  9  1  0  0  0  0
  3 27  1  0  0  0  0
  4 15  1  0  0  0  0
  4 17  1  0  0  0  0
  4 34  1  0  0  0  0
  5  6  1  0  0  0  0
  5 19  1  0  0  0  0
  5 41  1  0  0  0  0
  6 21  2  0  0  0  0
  7  8  2  0  0  0  0
  7 11  1  0  0  0  0
  8 10  1  0  0  0  0
  8 13  1  0  0  0  0
  9 10  2  0  0  0  0
  9 15  1  0  0  0  0
 10 28  1  0  0  0  0
 11 12  2  0  0  0  0
 11 29  1  0  0  0  0
 12 14  1  0  0  0  0
 12 16  1  0  0  0  0
 13 14  2  0  0  0  0
 13 30  1  0  0  0  0
 14 31  1  0  0  0  0
 16 19  2  0  0  0  0
 16 21  1  0  0  0  0
 17 18  1  0  0  0  0
 17 32  1  0  0  0  0
 17 33  1  0  0  0  0
 18 20  2  0  0  0  0
 18 22  1  0  0  0  0
 19 35  1  0  0  0  0
 20 23  1  0  0  0  0
 20 36  1  0  0  0  0
 21 37  1  0  0  0  0
 22 24  2  0  0  0  0
 22 38  1  0  0  0  0
 23 25  2  0  0  0  0
 24 25  1  0  0  0  0
 24 39  1  0  0  0  0
 25 40  1  0  0  0  0
 26 42  1  0  0  0  0
 26 43  1  0  0  0  0
 26 44  1  0  0  0  0
M  END
> <PUBCHEM_COMPOUND_CID>
52935500

> <PUBCHEM_CONFORMER_RMSD>
0.8

> <PUBCHEM_CONFORMER_DIVERSEORDER>
1
30
59
31
39
60
7
20
21
18
33
49
42
23
62
43
53
57
4
2
35
9
50
32
12
38
56
61
51
46
28
16
13
8
17
6
44
48
55
34
19
52
41
45
14
22
5
11
26
58
36
24
27
3
37
54
47
10
29
40
15
25

> <PUBCHEM_MMFF94_PARTIAL_CHARGES>
38
1 -0.57
10 -0.15
11 -0.15
12 0.05
13 -0.15
14 -0.15
15 0.71
16 -0.05
17 0.44
18 -0.14
19 -0.3
2 -0.36
20 -0.15
21 0.14
22 -0.15
23 0.08
24 -0.15
25 -0.15
26 0.28
27 0.27
28 0.15
29 0.15
3 0.03
30 0.15
31 0.15
34 0.37
35 0.15
36 0.15
37 0.15
38 0.15
39 0.15
4 -0.73
40 0.15
41 0.27
5 0.3
6 -0.71
7 -0.15
9 -0.24

> <PUBCHEM_EFFECTIVE_ROTOR_COUNT>
6

> <PUBCHEM_PHARMACOPHORE_FEATURES>
11
1 1 acceptor
1 2 acceptor
1 3 cation
1 3 donor
1 4 donor
1 5 donor
1 6 acceptor
5 3 7 8 9 10 rings
5 5 6 16 19 21 rings
6 18 20 22 23 24 25 rings
6 7 8 11 12 13 14 rings

> <PUBCHEM_HEAVY_ATOM_COUNT>
26

> <PUBCHEM_ATOM_DEF_STEREO_COUNT>
0

> <PUBCHEM_ATOM_UDEF_STEREO_COUNT>
0

> <PUBCHEM_BOND_DEF_STEREO_COUNT>
0

> <PUBCHEM_BOND_UDEF_STEREO_COUNT>
0

> <PUBCHEM_ISOTOPIC_ATOM_COUNT>
0

> <PUBCHEM_COMPONENT_COUNT>
1

> <PUBCHEM_CACTVS_TAUTO_COUNT>
42

> <PUBCHEM_CONFORMER_ID>
0327BB4C00000001

> <PUBCHEM_MMFF94_ENERGY>
59.5882

> <PUBCHEM_FEATURE_SELFOVERLAP>
55.914

> <PUBCHEM_SHAPE_FINGERPRINT>
10 15 18411985754609533195
10066227 112 17060337457135387176
10554248 39 16702021920564133636
10577160 183 14548739456976909780
10670039 82 15554453981133572019
10693767 8 11095619861977336212
10763959 59 15123507038614650842
10906281 52 18113625620723239526
11315181 36 18261106401264908647
11456790 92 18334566976556666136
11761917 87 16734093550177273378
12166972 35 8142084273697951798
12236239 1 18341609330619244494
12539765 74 18341058514771082150
12596602 18 18334017168680619123
12895837 130 17845932911114797953
13668630 136 8502658108019541888
13782708 43 12540683839160525134
14211702 104 12396570793888670384
14251764 18 18410008858277657303
14765038 42 18113337509420761043
14849402 71 17896327002900607684
14856354 85 18340768264211243671
14951699 99 18340772542246349377
15082195 135 11526790103397249002
15183329 4 13110968612685271070
15461852 350 17846773032175736071
15716309 27 14996282535084459175
1577012 14 18273209790038837775
16110190 28 18113622283364274077
16994733 274 18130218367930267184
17780758 139 17530685420837933627
190975 80 16660365925881480402
19958102 18 11455879261685579413
20028762 73 8646775504125819360
21130935 74 18260264148982405386
21521721 280 17968094291977944912
21623969 137 17312820485443698506
21781051 124 16732710437648766890
21781055 127 18408040724754965472
22288116 15 13039180425357243997
22393880 68 11671779318066471819
23081809 10 18271512157092091302
23522609 53 17896054281045666716
23576562 1 14476379608705167136
24771293 8 18193829561184223996
312425 54 17385729063116645379
3178227 256 17530964722403190252
3663271 9 18114180830739165195
3711267 37 18341622563894213544
4015057 19 11023817422586434647
4093350 32 18343585119224682498
4340502 62 16153699930522449674
439807 62 9078821992922236273
4938544 92 18341894113132190839
5104073 3 17241875511341935320
54039377 194 8430305854020164169
5718773 13 10809349935957213293
5758199 1 18260265283143115682
6328613 192 18201719548205892001
7226269 152 17918277545683599475
9689198 14 18343026601154485188
9953998 17 17458062660311442517
999808 66 13406794428421276745

> <PUBCHEM_SHAPE_MULTIPOLES>
503.41
23.23
2.12
1.44
6.41
0.85
0.05
16
7.86
-2.62
0.29
-1.03
-0.17
-1.05

> <PUBCHEM_SHAPE_SELFOVERLAP>
1116.752

> <PUBCHEM_SHAPE_VOLUME>
272.1

> <PUBCHEM_COORDINATE_TYPE>
2
5
10

$$$$
52935712
  -OEChem-05102415083D

 54 57  0     0  0  0  0  0  0999 V2000
   -1.8605    0.6978   -1.6622 O   0  0  0  0  0  0  0  0  0  0  0  0
    0.9745    4.8811   -1.6634 O   0  0  0  0  0  0  0  0  0  0  0  0
   -6.3473    1.7347    1.1187 O   0  0  0  0  0  0  0  0  0  0  0  0
    0.7524    0.1437   -0.4741 N   0  0  0  0  0  0  0  0  0  0  0  0
   -2.3990   -1.5333   -1.3319 N   0  0  0  0  0  0  0  0  0  0  0  0
    7.1257    1.1189    1.3806 N   0  0  0  0  0  0  0  0  0  0  0  0
    7.5639   -0.0742    1.8174 N   0  0  0  0  0  0  0  0  0  0  0  0
    1.9908   -0.4364   -0.3156 C   0  0  0  0  0  0  0  0  0  0  0  0
    0.4144    1.4971   -0.0830 C   0  0  0  0  0  0  0  0  0  0  0  0
   -0.1142   -0.7437   -1.0538 C   0  0  0  0  0  0  0  0  0  0  0  0
    1.9015   -1.7382   -0.8136 C   0  0  0  0  0  0  0  0  0  0  0  0
    0.5680   -1.9176   -1.2766 C   0  0  0  0  0  0  0  0  0  0  0  0
    0.8981    2.5623   -1.0691 C   0  0  0  0  0  0  0  0  0  0  0  0
    3.1712    0.0861    0.2248 C   0  0  0  0  0  0  0  0  0  0  0  0
    4.2924   -0.7478    0.2565 C   0  0  0  0  0  0  0  0  0  0  0  0
    3.0447   -2.5606   -0.7705 C   0  0  0  0  0  0  0  0  0  0  0  0
   -1.4836   -0.4609   -1.3591 C   0  0  0  0  0  0  0  0  0  0  0  0
    4.2325   -2.0512   -0.2330 C   0  0  0  0  0  0  0  0  0  0  0  0
    0.4566    3.9736   -0.6990 C   0  0  0  0  0  0  0  0  0  0  0  0
    5.5255   -0.2506    0.8019 C   0  0  0  0  0  0  0  0  0  0  0  0
   -3.8065   -1.4132   -1.6377 C   0  0  0  0  0  0  0  0  0  0  0  0
   -4.6225   -1.1032   -0.4161 C   0  0  0  0  0  0  0  0  0  0  0  0
    5.9096    1.0677    0.7652 C   0  0  0  0  0  0  0  0  0  0  0  0
    6.5822   -0.9068    1.4610 C   0  0  0  0  0  0  0  0  0  0  0  0
   -5.1126    0.1869   -0.2139 C   0  0  0  0  0  0  0  0  0  0  0  0
   -4.8897   -2.1052    0.5171 C   0  0  0  0  0  0  0  0  0  0  0  0
   -5.8702    0.4754    0.9214 C   0  0  0  0  0  0  0  0  0  0  0  0
   -5.6470   -1.8167    1.6524 C   0  0  0  0  0  0  0  0  0  0  0  0
   -6.1375   -0.5266    1.8545 C   0  0  0  0  0  0  0  0  0  0  0  0
   -7.1135    1.9607    2.3010 C   0  0  0  0  0  0  0  0  0  0  0  0
    0.8799    1.6699    0.8960 H   0  0  0  0  0  0  0  0  0  0  0  0
   -0.6591    1.5754    0.1054 H   0  0  0  0  0  0  0  0  0  0  0  0
    0.1652   -2.8148   -1.7277 H   0  0  0  0  0  0  0  0  0  0  0  0
    0.5323    2.3298   -2.0780 H   0  0  0  0  0  0  0  0  0  0  0  0
    1.9919    2.5381   -1.1527 H   0  0  0  0  0  0  0  0  0  0  0  0
    3.1937    1.0989    0.6140 H   0  0  0  0  0  0  0  0  0  0  0  0
    3.0121   -3.5779   -1.1501 H   0  0  0  0  0  0  0  0  0  0  0  0
    5.1049   -2.7010   -0.2158 H   0  0  0  0  0  0  0  0  0  0  0  0
    0.8403    4.2547    0.2868 H   0  0  0  0  0  0  0  0  0  0  0  0
   -0.6351    4.0515   -0.6948 H   0  0  0  0  0  0  0  0  0  0  0  0
   -2.0645   -2.4534   -1.0612 H   0  0  0  0  0  0  0  0  0  0  0  0
   -3.9416   -0.6424   -2.4050 H   0  0  0  0  0  0  0  0  0  0  0  0
   -4.1337   -2.3628   -2.0762 H   0  0  0  0  0  0  0  0  0  0  0  0
    5.4541    1.9625    0.3636 H   0  0  0  0  0  0  0  0  0  0  0  0
    6.6843   -1.9555    1.7029 H   0  0  0  0  0  0  0  0  0  0  0  0
    0.6795    5.7707   -1.4043 H   0  0  0  0  0  0  0  0  0  0  0  0
   -4.9070    0.9739   -0.9354 H   0  0  0  0  0  0  0  0  0  0  0  0
   -4.5129   -3.1139    0.3702 H   0  0  0  0  0  0  0  0  0  0  0  0
    7.7106    1.9307    1.5349 H   0  0  0  0  0  0  0  0  0  0  0  0
   -5.8543   -2.5975    2.3785 H   0  0  0  0  0  0  0  0  0  0  0  0
   -6.7183   -0.3718    2.7573 H   0  0  0  0  0  0  0  0  0  0  0  0
   -7.4118    3.0142    2.2964 H   0  0  0  0  0  0  0  0  0  0  0  0
   -6.5153    1.8017    3.2047 H   0  0  0  0  0  0  0  0  0  0  0  0
   -8.0344    1.3677    2.3031 H   0  0  0  0  0  0  0  0  0  0  0  0
  1 17  2  0  0  0  0
  2 19  1  0  0  0  0
  2 46  1  0  0  0  0
  3 27  1  0  0  0  0
  3 30  1  0  0  0  0
  4  8  1  0  0  0  0
  4  9  1  0  0  0  0
  4 10  1  0  0  0  0
  5 17  1  0  0  0  0
  5 21  1  0  0  0  0
  5 41  1  0  0  0  0
  6  7  1  0  0  0  0
  6 23  1  0  0  0  0
  6 49  1  0  0  0  0
  7 24  2  0  0  0  0
  8 11  2  0  0  0  0
  8 14  1  0  0  0  0
  9 13  1  0  0  0  0
  9 31  1  0  0  0  0
  9 32  1  0  0  0  0
 10 12  2  0  0  0  0
 10 17  1  0  0  0  0
 11 12  1  0  0  0  0
 11 16  1  0  0  0  0
 12 33  1  0  0  0  0
 13 19  1  0  0  0  0
 13 34  1  0  0  0  0
 13 35  1  0  0  0  0
 14 15  2  0  0  0  0
 14 36  1  0  0  0  0
 15 18  1  0  0  0  0
 15 20  1  0  0  0  0
 16 18  2  0  0  0  0
 16 37  1  0  0  0  0
 18 38  1  0  0  0  0
 19 39  1  0  0  0  0
 19 40  1  0  0  0  0
 20 23  2  0  0  0  0
 20 24  1  0  0  0  0
 21 22  1  0  0  0  0
 21 42  1  0  0  0  0
 21 43  1  0  0  0  0
 22 25  2  0  0  0  0
 22 26  1  0  0  0  0
 23 44  1  0  0  0  0
 24 45  1  0  0  0  0
 25 27  1  0  0  0  0
 25 47  1  0  0  0  0
 26 28  2  0  0  0  0
 26 48  1  0  0  0  0
 27 29  2  0  0  0  0
 28 29  1  0  0  0  0
 28 50  1  0  0  0  0
 29 51  1  0  0  0  0
 30 52  1  0  0  0  0
 30 53  1  0  0  0  0
 30 54  1  0  0  0  0
M  END
> <PUBCHEM_COMPOUND_CID>
52935712

> <PUBCHEM_CONFORMER_RMSD>
1

> <PUBCHEM_CONFORMER_DIVERSEORDER>
3
118
19
43
110
14
89
30
112
49
38
98
69
65
91
9
92
53
82
99
115
25
117
27
94
5
22
101
35
54
93
40
64
24
36
61
60
68
76
113
87
10
80
67
71
18
17
104
29
109
16
81
77
51
73
85
15
62
20
108
105
106
116
96
102
42
46
72
47
58
59
7
111
83
78
45
97
86
114
88
8
32
74
103
50
48
37
79
31
63
33
55
84
44
11
75
95
41
34
23
119
57
100
13
56
12
66
107
4
21
52
70
26
39
28
90
2
6
1

> <PUBCHEM_MMFF94_PARTIAL_CHARGES>
41
1 -0.57
10 -0.24
12 -0.15
14 -0.15
15 0.05
16 -0.15
17 0.71
18 -0.15
19 0.28
2 -0.68
20 -0.05
21 0.44
22 -0.14
23 -0.3
24 0.14
25 -0.15
26 -0.15
27 0.08
28 -0.15
29 -0.15
3 -0.36
30 0.28
33 0.15
36 0.15
37 0.15
38 0.15
4 0.05
41 0.37
44 0.15
45 0.15
46 0.4
47 0.15
48 0.15
49 0.27
5 -0.73
50 0.15
51 0.15
6 0.3
7 -0.71
8 -0.15
9 0.26

> <PUBCHEM_EFFECTIVE_ROTOR_COUNT>
9

> <PUBCHEM_PHARMACOPHORE_FEATURES>
12
1 1 acceptor
1 2 acceptor
1 2 donor
1 3 acceptor
1 4 cation
1 5 donor
1 6 donor
1 7 acceptor
5 4 8 10 11 12 rings
5 6 7 20 23 24 rings
6 22 25 26 27 28 29 rings
6 8 11 14 15 16 18 rings

> <PUBCHEM_HEAVY_ATOM_COUNT>
30

> <PUBCHEM_ATOM_DEF_STEREO_COUNT>
0

> <PUBCHEM_ATOM_UDEF_STEREO_COUNT>
0

> <PUBCHEM_BOND_DEF_STEREO_COUNT>
0

> <PUBCHEM_BOND_UDEF_STEREO_COUNT>
0

> <PUBCHEM_ISOTOPIC_ATOM_COUNT>
0

> <PUBCHEM_COMPONENT_COUNT>
1

> <PUBCHEM_CACTVS_TAUTO_COUNT>
9

> <PUBCHEM_CONFORMER_ID>
0327BC2000000003

> <PUBCHEM_MMFF94_ENERGY>
67.6843

> <PUBCHEM_FEATURE_SELFOVERLAP>
60.989

> <PUBCHEM_SHAPE_FINGERPRINT>
10 15 18342174466367959346
10554248 39 15123233165550407222
10693767 8 10953722414450298320
10906281 52 18339366370175341302
11297750 10 17626123948709230062
11963148 33 12613021787220933784
11991303 11 12175322743247369148
12403259 118 18272100418067970399
12422481 6 18201718444499660117
13257819 101 14476967774326965921
13540713 5 17837485615636882071
13560911 23 18335137631464722627
13782708 43 16588297319647671274
14020679 6 18114741663263491346
14849402 71 18117002297555989332
14931854 50 8502366678063273217
14950920 106 18115880757958284867
15021287 119 18338229470603701751
15461852 350 16487247795109376759
15840311 113 17775013340868520599
16110190 28 18413110563299335445
16994733 274 15553586544317684106
17980427 23 17774999128611041085
18785283 64 18117563044127449228
19611394 137 18187079547062139832
20028762 73 12324236157628310816
20642791 268 18272937132919734071
20721686 146 16988564580432197608
20739085 24 18343033167806462759
20775438 99 11244830311073099571
21033648 29 17775277236629030907
21130935 74 18202557385195314638
21521239 73 11025804209963683431
21781055 127 17704072924682497602
21927370 108 17749104440741030940
22393880 68 7925633268018557999
23522609 53 18266751344969184108
23576562 1 11959142278011521498
23845131 108 17402328170580725316
24771293 8 18200588215872399156
2838139 119 13973965432350939979
312425 54 18261117344367455547
3552219 110 17822019688113514844
439807 62 12613044894471578323
5104073 3 18265043635975939114
54039377 194 13623537848527414843
58083652 198 18188192304063166564
6009941 240 17604418601376248341
6328613 192 17418092113590008723
7495541 125 16950284035128268942

> <PUBCHEM_SHAPE_MULTIPOLES>
579.85
19.58
3.55
1.9
1.34
4.61
-0.41
-0.05
-17.54
0.11
1.7
1.31
0.41
-0.89

> <PUBCHEM_SHAPE_SELFOVERLAP>
1264.708

> <PUBCHEM_SHAPE_VOLUME>
318.5

> <PUBCHEM_COORDINATE_TYPE>
2
5
10

$$$$
52935714
  -OEChem-05102415083D

 58 61  0     0  0  0  0  0  0999 V2000
    1.7157   -0.6944   -2.0695 O   0  0  0  0  0  0  0  0  0  0  0  0
    5.2206    2.0803    0.2019 O   0  0  0  0  0  0  0  0  0  0  0  0
   -0.8910   -0.3516   -0.8090 N   0  0  0  0  0  0  0  0  0  0  0  0
    0.7040    3.0261   -0.8305 N   0  0  0  0  0  0  0  0  0  0  0  0
    2.1886   -2.3246   -0.4897 N   0  0  0  0  0  0  0  0  0  0  0  0
   -6.9839    1.9793    0.7575 N   0  0  0  0  0  0  0  0  0  0  0  0
   -7.8229    0.9421    0.5948 N   0  0  0  0  0  0  0  0  0  0  0  0
   -2.1416   -0.6723   -0.3308 C   0  0  0  0  0  0  0  0  0  0  0  0
   -0.5050    0.9502   -1.3140 C   0  0  0  0  0  0  0  0  0  0  0  0
   -0.0650   -1.4412   -0.7393 C   0  0  0  0  0  0  0  0  0  0  0  0
   -2.1026   -2.0142    0.0543 C   0  0  0  0  0  0  0  0  0  0  0  0
    0.3220    1.7266   -0.2900 C   0  0  0  0  0  0  0  0  0  0  0  0
   -0.7860   -2.4859   -0.2085 C   0  0  0  0  0  0  0  0  0  0  0  0
   -3.2926    0.1147   -0.2109 C   0  0  0  0  0  0  0  0  0  0  0  0
   -4.4365   -0.4893    0.3184 C   0  0  0  0  0  0  0  0  0  0  0  0
   -3.2682   -2.6017    0.5847 C   0  0  0  0  0  0  0  0  0  0  0  0
    1.3043   -1.4511   -1.1558 C   0  0  0  0  0  0  0  0  0  0  0  0
   -4.4269   -1.8264    0.7108 C   0  0  0  0  0  0  0  0  0  0  0  0
   -5.6399    0.2833    0.4603 C   0  0  0  0  0  0  0  0  0  0  0  0
    1.8346    2.8893   -1.7503 C   0  0  0  0  0  0  0  0  0  0  0  0
    1.0381    3.9556    0.2500 C   0  0  0  0  0  0  0  0  0  0  0  0
    3.6006   -2.4337   -0.7788 C   0  0  0  0  0  0  0  0  0  0  0  0
   -5.6652    1.6380    0.6857 C   0  0  0  0  0  0  0  0  0  0  0  0
    4.4186   -1.4860    0.0499 C   0  0  0  0  0  0  0  0  0  0  0  0
   -6.9961   -0.0911    0.4136 C   0  0  0  0  0  0  0  0  0  0  0  0
    4.4394   -0.1265   -0.2620 C   0  0  0  0  0  0  0  0  0  0  0  0
    5.1584   -1.9649    1.1313 C   0  0  0  0  0  0  0  0  0  0  0  0
    5.1999    0.7541    0.5073 C   0  0  0  0  0  0  0  0  0  0  0  0
    5.9191   -1.0843    1.9005 C   0  0  0  0  0  0  0  0  0  0  0  0
    5.9396    0.2752    1.5888 C   0  0  0  0  0  0  0  0  0  0  0  0
    6.0200    2.9244    1.0292 C   0  0  0  0  0  0  0  0  0  0  0  0
   -0.0031    0.8045   -2.2731 H   0  0  0  0  0  0  0  0  0  0  0  0
   -1.4120    1.5127   -1.5605 H   0  0  0  0  0  0  0  0  0  0  0  0
   -0.3108    1.8620    0.5984 H   0  0  0  0  0  0  0  0  0  0  0  0
    1.1973    1.1591    0.0505 H   0  0  0  0  0  0  0  0  0  0  0  0
   -0.4207   -3.4885   -0.0289 H   0  0  0  0  0  0  0  0  0  0  0  0
   -3.2885    1.1520   -0.5276 H   0  0  0  0  0  0  0  0  0  0  0  0
   -3.2739   -3.6424    0.8958 H   0  0  0  0  0  0  0  0  0  0  0  0
   -5.3135   -2.2980    1.1292 H   0  0  0  0  0  0  0  0  0  0  0  0
    1.8300   -2.8971    0.2687 H   0  0  0  0  0  0  0  0  0  0  0  0
    2.7201    2.4736   -1.2585 H   0  0  0  0  0  0  0  0  0  0  0  0
    2.1072    3.8680   -2.1620 H   0  0  0  0  0  0  0  0  0  0  0  0
    1.5879    2.2604   -2.6107 H   0  0  0  0  0  0  0  0  0  0  0  0
    1.3024    4.9386   -0.1555 H   0  0  0  0  0  0  0  0  0  0  0  0
    1.8762    3.5963    0.8585 H   0  0  0  0  0  0  0  0  0  0  0  0
    0.1748    4.1120    0.9065 H   0  0  0  0  0  0  0  0  0  0  0  0
    3.8906   -3.4734   -0.5905 H   0  0  0  0  0  0  0  0  0  0  0  0
    3.7721   -2.2396   -1.8439 H   0  0  0  0  0  0  0  0  0  0  0  0
   -4.8928    2.3846    0.8090 H   0  0  0  0  0  0  0  0  0  0  0  0
   -7.4247   -1.0705    0.2529 H   0  0  0  0  0  0  0  0  0  0  0  0
   -7.3806    2.8971    0.9164 H   0  0  0  0  0  0  0  0  0  0  0  0
    3.8822    0.2572   -1.1107 H   0  0  0  0  0  0  0  0  0  0  0  0
    5.1502   -3.0212    1.3867 H   0  0  0  0  0  0  0  0  0  0  0  0
    6.4945   -1.4581    2.7425 H   0  0  0  0  0  0  0  0  0  0  0  0
    6.5512    0.9031    2.2276 H   0  0  0  0  0  0  0  0  0  0  0  0
    5.6560    2.9366    2.0621 H   0  0  0  0  0  0  0  0  0  0  0  0
    7.0814    2.6617    0.9658 H   0  0  0  0  0  0  0  0  0  0  0  0
    5.9193    3.9440    0.6429 H   0  0  0  0  0  0  0  0  0  0  0  0
  1 17  2  0  0  0  0
  2 28  1  0  0  0  0
  2 31  1  0  0  0  0
  3  8  1  0  0  0  0
  3  9  1  0  0  0  0
  3 10  1  0  0  0  0
  4 12  1  0  0  0  0
  4 20  1  0  0  0  0
  4 21  1  0  0  0  0
  5 17  1  0  0  0  0
  5 22  1  0  0  0  0
  5 40  1  0  0  0  0
  6  7  1  0  0  0  0
  6 23  1  0  0  0  0
  6 51  1  0  0  0  0
  7 25  2  0  0  0  0
  8 11  2  0  0  0  0
  8 14  1  0  0  0  0
  9 12  1  0  0  0  0
  9 32  1  0  0  0  0
  9 33  1  0  0  0  0
 10 13  2  0  0  0  0
 10 17  1  0  0  0  0
 11 13  1  0  0  0  0
 11 16  1  0  0  0  0
 12 34  1  0  0  0  0
 12 35  1  0  0  0  0
 13 36  1  0  0  0  0
 14 15  2  0  0  0  0
 14 37  1  0  0  0  0
 15 18  1  0  0  0  0
 15 19  1  0  0  0  0
 16 18  2  0  0  0  0
 16 38  1  0  0  0  0
 18 39  1  0  0  0  0
 19 23  2  0  0  0  0
 19 25  1  0  0  0  0
 20 41  1  0  0  0  0
 20 42  1  0  0  0  0
 20 43  1  0  0  0  0
 21 44  1  0  0  0  0
 21 45  1  0  0  0  0
 21 46  1  0  0  0  0
 22 24  1  0  0  0  0
 22 47  1  0  0  0  0
 22 48  1  0  0  0  0
 23 49  1  0  0  0  0
 24 26  2  0  0  0  0
 24 27  1  0  0  0  0
 25 50  1  0  0  0  0
 26 28  1  0  0  0  0
 26 52  1  0  0  0  0
 27 29  2  0  0  0  0
 27 53  1  0  0  0  0
 28 30  2  0  0  0  0
 29 30  1  0  0  0  0
 29 54  1  0  0  0  0
 30 55  1  0  0  0  0
 31 56  1  0  0  0  0
 31 57  1  0  0  0  0
 31 58  1  0  0  0  0
M  END
> <PUBCHEM_COMPOUND_CID>
52935714

> <PUBCHEM_CONFORMER_RMSD>
1

> <PUBCHEM_CONFORMER_DIVERSEORDER>
1
12
30
80
26
13
22
56
79
67
89
70
49
6
66
25
68
43
29
82
71
63
40
74
81
42
72
9
44
76
85
61
28
24
27
64
59
45
65
38
37
83
19
16
11
58
36
50
77
84
87
53
41
86
21
32
55
18
31
54
52
14
62
8
88
57
69
51
5
73
33
48
75
78
3
35
4
39
46
15
23
60
47
2
34
7
17
20
10

> <PUBCHEM_MMFF94_PARTIAL_CHARGES>
42
1 -0.57
10 -0.24
12 0.27
13 -0.15
14 -0.15
15 0.05
16 -0.15
17 0.71
18 -0.15
19 -0.05
2 -0.36
20 0.27
21 0.27
22 0.44
23 -0.3
24 -0.14
25 0.14
26 -0.15
27 -0.15
28 0.08
29 -0.15
3 0.05
30 -0.15
31 0.28
36 0.15
37 0.15
38 0.15
39 0.15
4 -0.81
40 0.37
49 0.15
5 -0.73
50 0.15
51 0.27
52 0.15
53 0.15
54 0.15
55 0.15
6 0.3
7 -0.71
8 -0.15
9 0.26

> <PUBCHEM_EFFECTIVE_ROTOR_COUNT>
9

> <PUBCHEM_PHARMACOPHORE_FEATURES>
11
1 1 acceptor
1 2 acceptor
1 3 cation
1 4 cation
1 5 donor
1 6 donor
1 7 acceptor
5 3 8 10 11 13 rings
5 6 7 19 23 25 rings
6 24 26 27 28 29 30 rings
6 8 11 14 15 16 18 rings

> <PUBCHEM_HEAVY_ATOM_COUNT>
31

> <PUBCHEM_ATOM_DEF_STEREO_COUNT>
0

> <PUBCHEM_ATOM_UDEF_STEREO_COUNT>
0

> <PUBCHEM_BOND_DEF_STEREO_COUNT>
0

> <PUBCHEM_BOND_UDEF_STEREO_COUNT>
0

> <PUBCHEM_ISOTOPIC_ATOM_COUNT>
0

> <PUBCHEM_COMPONENT_COUNT>
1

> <PUBCHEM_CACTVS_TAUTO_COUNT>
9

> <PUBCHEM_CONFORMER_ID>
0327BC2200000001

> <PUBCHEM_MMFF94_ENERGY>
74.4271

> <PUBCHEM_FEATURE_SELFOVERLAP>
55.913

> <PUBCHEM_SHAPE_FINGERPRINT>
10 15 18334018293782656659
10006869 2 18266733576219975198
10439779 11 18342747325233555817
10653451 467 18191009119709952261
10939801 23 18338799035013383408
11408170 132 10807668723319228059
11991303 11 13542164100878479509
12035758 1 18334575716202559333
12107183 9 18334858342104404985
12422481 6 18407758144568542860
12717326 135 16445288116354000861
12925494 130 18269551805142369217
13008946 113 18042691778592276268
13257819 37 10951757612492197560
13782708 43 12685101405914094411
14020679 6 17894915182282115723
14040221 97 18334296504527006164
14347424 109 18410288104208234272
14466204 15 18335426708306524299
14767858 380 10303810982132778609
14849402 71 18343303704213873641
15131766 46 16844138295796916186
15840311 113 17774447066847854017
17980427 23 18201148932047331199
1813 80 16950558913478064790
1979834 28 18272656727474756542
20567600 234 18131349700438059939
20642791 178 18045789146086686692
21033648 29 17917135178550994930
21304303 94 9223225252854457820
21344244 181 11458717079489826960
21641784 216 14405191621138658971
21781051 124 10807639112912557365
21792934 111 18264483997167736271
21859007 373 17749660780629020973
23559900 14 18268735868709609422
23569943 247 8141820399433903549
24771293 8 18271800237448265668
3117164 225 18336828709774637833
3680242 22 18260271836793600490
373842 8 18341334413704453025
392239 28 18260256444053240466
394071 54 18342184366452023922
4093350 32 17203333264674521734
4144715 1 18262812872738204443
4169191 19 18342738533382447905
5104073 3 18041858306355294939
5109719 28 18341907311355831611
6004065 56 18342451565511460759
60111433 81 17702375346394621648
6371009 1 18411704266890806541
9777508 108 17762621690152480244

> <PUBCHEM_SHAPE_MULTIPOLES>
601.32
18.11
3.9
1.39
13.06
2.56
0.14
4.64
-10.46
-2.73
0.19
-1.58
0.11
-0.22

> <PUBCHEM_SHAPE_SELFOVERLAP>
1306.484

> <PUBCHEM_SHAPE_VOLUME>
332.8

> <PUBCHEM_COORDINATE_TYPE>
2
5
10

$$$$
57399460
  -OEChem-05102415083D

 47 50  0     0  0  0  0  0  0999 V2000
   -1.9099   -2.4191   -1.5992 O   0  0  0  0  0  0  0  0  0  0  0  0
   -4.7822    2.7632   -1.3331 O   0  0  0  0  0  0  0  0  0  0  0  0
    0.5153   -0.4562   -0.2700 N   0  0  0  0  0  0  0  0  0  0  0  0
   -2.3343   -1.4930    0.5047 N   0  0  0  0  0  0  0  0  0  0  0  0
    6.3705    2.7977    0.1108 N   0  0  0  0  0  0  0  0  0  0  0  0
    7.2081    1.9642    0.7509 N   0  0  0  0  0  0  0  0  0  0  0  0
    1.8839   -0.5852   -0.1935 C   0  0  0  0  0  0  0  0  0  0  0  0
    2.1762   -1.9448   -0.3210 C   0  0  0  0  0  0  0  0  0  0  0  0
   -0.0660   -1.6839   -0.4412 C   0  0  0  0  0  0  0  0  0  0  0  0
    0.9364   -2.6256   -0.4772 C   0  0  0  0  0  0  0  0  0  0  0  0
   -3.7841   -1.6742    0.4768 C   0  0  0  0  0  0  0  0  0  0  0  0
    2.8752    0.3877   -0.0232 C   0  0  0  0  0  0  0  0  0  0  0  0
   -1.4757   -1.8848   -0.5559 C   0  0  0  0  0  0  0  0  0  0  0  0
    4.2041   -0.0436    0.0180 C   0  0  0  0  0  0  0  0  0  0  0  0
    3.5231   -2.3562   -0.2757 C   0  0  0  0  0  0  0  0  0  0  0  0
    4.5254   -1.3939   -0.1061 C   0  0  0  0  0  0  0  0  0  0  0  0
   -4.5154   -0.3647    0.5456 C   0  0  0  0  0  0  0  0  0  0  0  0
    5.2538    0.9223    0.1917 C   0  0  0  0  0  0  0  0  0  0  0  0
   -1.7995   -0.8725    1.7087 C   0  0  0  0  0  0  0  0  0  0  0  0
   -4.3075    0.6025   -0.4378 C   0  0  0  0  0  0  0  0  0  0  0  0
   -5.4021   -0.1149    1.5931 C   0  0  0  0  0  0  0  0  0  0  0  0
   -4.9863    1.8195   -0.3738 C   0  0  0  0  0  0  0  0  0  0  0  0
    5.1862    2.2225   -0.2458 C   0  0  0  0  0  0  0  0  0  0  0  0
    6.5204    0.8201    0.7974 C   0  0  0  0  0  0  0  0  0  0  0  0
   -6.0806    1.1021    1.6572 C   0  0  0  0  0  0  0  0  0  0  0  0
   -5.8730    2.0692    0.6737 C   0  0  0  0  0  0  0  0  0  0  0  0
   -3.8620    2.4413   -2.3751 C   0  0  0  0  0  0  0  0  0  0  0  0
    0.0166    0.4213   -0.2139 H   0  0  0  0  0  0  0  0  0  0  0  0
    0.7973   -3.6914   -0.6013 H   0  0  0  0  0  0  0  0  0  0  0  0
   -4.0495   -2.3301    1.3146 H   0  0  0  0  0  0  0  0  0  0  0  0
   -4.0778   -2.1989   -0.4394 H   0  0  0  0  0  0  0  0  0  0  0  0
    2.5928    1.4304    0.0839 H   0  0  0  0  0  0  0  0  0  0  0  0
    3.7873   -3.4053   -0.3727 H   0  0  0  0  0  0  0  0  0  0  0  0
    5.5590   -1.7326   -0.0807 H   0  0  0  0  0  0  0  0  0  0  0  0
   -2.4429   -1.1000    2.5646 H   0  0  0  0  0  0  0  0  0  0  0  0
   -0.8009   -1.2447    1.9485 H   0  0  0  0  0  0  0  0  0  0  0  0
   -1.7597    0.2109    1.5624 H   0  0  0  0  0  0  0  0  0  0  0  0
   -3.6129    0.3547   -1.2334 H   0  0  0  0  0  0  0  0  0  0  0  0
   -5.5735   -0.8585    2.3668 H   0  0  0  0  0  0  0  0  0  0  0  0
    4.4319    2.7897   -0.7736 H   0  0  0  0  0  0  0  0  0  0  0  0
    6.9773   -0.0353    1.2752 H   0  0  0  0  0  0  0  0  0  0  0  0
   -6.7707    1.2969    2.4730 H   0  0  0  0  0  0  0  0  0  0  0  0
   -6.4044    3.0153    0.7290 H   0  0  0  0  0  0  0  0  0  0  0  0
    6.6728    3.7500   -0.0522 H   0  0  0  0  0  0  0  0  0  0  0  0
   -3.8209    3.3045   -3.0475 H   0  0  0  0  0  0  0  0  0  0  0  0
   -4.2093    1.5897   -2.9701 H   0  0  0  0  0  0  0  0  0  0  0  0
   -2.8490    2.2915   -1.9861 H   0  0  0  0  0  0  0  0  0  0  0  0
  1 13  2  0  0  0  0
  2 22  1  0  0  0  0
  2 27  1  0  0  0  0
  3  7  1  0  0  0  0
  3  9  1  0  0  0  0
  3 28  1  0  0  0  0
  4 11  1  0  0  0  0
  4 13  1  0  0  0  0
  4 19  1  0  0  0  0
  5  6  1  0  0  0  0
  5 23  1  0  0  0  0
  5 44  1  0  0  0  0
  6 24  2  0  0  0  0
  7  8  2  0  0  0  0
  7 12  1  0  0  0  0
  8 10  1  0  0  0  0
  8 15  1  0  0  0  0
  9 10  2  0  0  0  0
  9 13  1  0  0  0  0
 10 29  1  0  0  0  0
 11 17  1  0  0  0  0
 11 30  1  0  0  0  0
 11 31  1  0  0  0  0
 12 14  2  0  0  0  0
 12 32  1  0  0  0  0
 14 16  1  0  0  0  0
 14 18  1  0  0  0  0
 15 16  2  0  0  0  0
 15 33  1  0  0  0  0
 16 34  1  0  0  0  0
 17 20  2  0  0  0  0
 17 21  1  0  0  0  0
 18 23  2  0  0  0  0
 18 24  1  0  0  0  0
 19 35  1  0  0  0  0
 19 36  1  0  0  0  0
 19 37  1  0  0  0  0
 20 22  1  0  0  0  0
 20 38  1  0  0  0  0
 21 25  2  0  0  0  0
 21 39  1  0  0  0  0
 22 26  2  0  0  0  0
 23 40  1  0  0  0  0
 24 41  1  0  0  0  0
 25 26  1  0  0  0  0
 25 42  1  0  0  0  0
 26 43  1  0  0  0  0
 27 45  1  0  0  0  0
 27 46  1  0  0  0  0
 27 47  1  0  0  0  0
M  END
> <PUBCHEM_COMPOUND_CID>
57399460

> <PUBCHEM_CONFORMER_RMSD>
0.8

> <PUBCHEM_CONFORMER_DIVERSEORDER>
1
280
122
45
292
204
307
134
284
211
171
237
59
67
42
295
32
224
76
126
138
132
189
305
243
199
245
16
252
188
217
107
282
130
98
303
18
227
264
229
235
141
236
158
143
120
249
101
220
270
251
24
15
19
181
250
152
177
210
38
254
123
239
309
294
33
281
285
222
296
83
170
144
241
293
74
8
17
197
44
156
36
124
69
121
306
155
262
207
192
94
10
277
104
58
87
29
273
218
164
41
147
168
228
11
133
209
23
160
57
283
244
272
205
234
196
289
261
274
47
287
82
231
286
176
81
70
190
22
153
25
184
148
161
248
173
263
185
198
191
71
26
268
86
72
169
9
265
114
174
208
135
304
60
260
298
55
225
65
27
112
163
194
223
232
151
278
201
206
110
233
149
28
226
62
64
186
259
183
267
276
195
20
61
238
167
13
97
73
247
12
279
242
212
255
162
137
7
52
48
159
291
99
40
290
54
175
297
53
31
271
145
219
96
80
200
266
85
34
182
253
180
240
172
246
51
300
75
165
146
50
108
39
115
131
91
193
4
179
214
30
89
257
275
166
102
79
43
118
140
35
139
308
68
269
117
109
106
21
77
5
142
66
288
203
128
150
63
56
127
93
90
301
187
92
119
116
95
88
105
129
202
37
230
3
136
2
258
154
299
213
302
216
178
113
84
78
215
157
46
256
6
221
14
103
125
100
49
111

> <PUBCHEM_MMFF94_PARTIAL_CHARGES>
38
1 -0.57
10 -0.15
11 0.44
12 -0.15
13 0.71
14 0.05
15 -0.15
16 -0.15
17 -0.14
18 -0.05
19 0.3
2 -0.36
20 -0.15
21 -0.15
22 0.08
23 -0.3
24 0.14
25 -0.15
26 -0.15
27 0.28
28 0.27
29 0.15
3 0.03
32 0.15
33 0.15
34 0.15
38 0.15
39 0.15
4 -0.66
40 0.15
41 0.15
42 0.15
43 0.15
44 0.27
5 0.3
6 -0.71
7 -0.15
9 -0.24

> <PUBCHEM_EFFECTIVE_ROTOR_COUNT>
6

> <PUBCHEM_PHARMACOPHORE_FEATURES>
10
1 1 acceptor
1 2 acceptor
1 3 cation
1 3 donor
1 5 donor
1 6 acceptor
5 3 7 8 9 10 rings
5 5 6 18 23 24 rings
6 17 20 21 22 25 26 rings
6 7 8 12 14 15 16 rings

> <PUBCHEM_HEAVY_ATOM_COUNT>
27

> <PUBCHEM_ATOM_DEF_STEREO_COUNT>
0

> <PUBCHEM_ATOM_UDEF_STEREO_COUNT>
0

> <PUBCHEM_BOND_DEF_STEREO_COUNT>
0

> <PUBCHEM_BOND_UDEF_STEREO_COUNT>
0

> <PUBCHEM_ISOTOPIC_ATOM_COUNT>
0

> <PUBCHEM_COMPONENT_COUNT>
1

> <PUBCHEM_CACTVS_TAUTO_COUNT>
23

> <PUBCHEM_CONFORMER_ID>
036BD8A400000001

> <PUBCHEM_MMFF94_ENERGY>
75.0739

> <PUBCHEM_FEATURE_SELFOVERLAP>
50.839

> <PUBCHEM_SHAPE_FINGERPRINT>
10 15 18114184146095110728
10369192 42 17703519865395089311
105312 117 17489310810526358935
10554248 39 17489309638253637510
10883706 89 17897140474464875122
10930396 42 17458064872784394977
12403259 415 18335426707858313511
12422481 6 17821725044397718564
12633257 1 16009038318651815558
13167372 99 18410853292050684552
13690498 29 16915368034435275543
13782708 43 12901533651402717672
13785724 45 18051693236193114698
13911987 19 17561085800454424811
14251764 30 9439404614203998546
14739800 52 17605547748420570657
14790565 3 18194404618217494148
14950920 106 15936701461919685997
14951699 99 18261119590518767404
15519825 34 16733841924806402019
17870717 6 12463279277575364481
18393751 57 18261403243592737627
19958102 18 12103848938401912356
20281389 69 18408325475362017971
20398071 356 7997976790428992536
20511986 3 18202555199108935458
20691028 202 18202002097341567665
21033648 144 18411982442883987799
21033648 29 18041564629318207341
21196832 93 10807641342538822332
21302155 148 18333735727467807612
21304303 64 18272943700294475609
21307412 95 10807926039136631313
21315764 119 12535357770349239841
2260408 40 15430308080402214218
22956985 138 16890344404561271523
23559900 14 18125162636618641667
23569914 2 17831251199919030236
25122255 55 8790889600767921760
25269216 80 15841260541741857005
2748736 6 18272645753622123752
2838139 119 18337948970510727231
2916195 48 18261115149628045835
3459 39 18270103708640111896
437795 96 17968928700459658173
465052 167 11530477840296288842
484985 159 8070032181939748125
504843 32 17846494872265795799
5104073 3 18260269646149952738
5364581 5 18115034133277221625
54039377 194 11314022470851501944
57724786 102 18057331595758705059
59682541 52 16343160051885189332
636775 72 17912357938737713336
6608658 132 16128384731253294113
6697151 62 17541078884611867695
7970288 3 10665240262434911825
999808 66 8358264765077162296

> <PUBCHEM_SHAPE_MULTIPOLES>
523.98
18.57
3.37
1.41
8.85
0.66
-0.23
16.7
5.05
0.88
-1.11
-2.45
0.51
1.83

> <PUBCHEM_SHAPE_SELFOVERLAP>
1158.44

> <PUBCHEM_SHAPE_VOLUME>
284.7

> <PUBCHEM_COORDINATE_TYPE>
2
5
10

$$$$
57390719
  -OEChem-05102415083D

 50 53  0     0  0  0  0  0  0999 V2000
    1.6606    2.9585    1.8271 O   0  0  0  0  0  0  0  0  0  0  0  0
    4.7476   -2.6411    1.1018 O   0  0  0  0  0  0  0  0  0  0  0  0
   -0.7910    1.6909    0.1835 N   0  0  0  0  0  0  0  0  0  0  0  0
    2.5438    1.9630   -0.0946 N   0  0  0  0  0  0  0  0  0  0  0  0
   -6.9154   -0.3903   -1.5979 N   0  0  0  0  0  0  0  0  0  0  0  0
   -7.3663   -1.1193   -0.5629 N   0  0  0  0  0  0  0  0  0  0  0  0
   -1.7473    0.7123    0.3361 C   0  0  0  0  0  0  0  0  0  0  0  0
    0.3531    1.3411    0.8491 C   0  0  0  0  0  0  0  0  0  0  0  0
   -1.1849   -0.2920    1.1272 C   0  0  0  0  0  0  0  0  0  0  0  0
    0.1402    0.1188    1.4438 C   0  0  0  0  0  0  0  0  0  0  0  0
   -3.0538    0.6400   -0.1603 C   0  0  0  0  0  0  0  0  0  0  0  0
    1.5423    2.1363    0.8946 C   0  0  0  0  0  0  0  0  0  0  0  0
   -3.8061   -0.4929    0.1622 C   0  0  0  0  0  0  0  0  0  0  0  0
   -1.9623   -1.4250    1.4386 C   0  0  0  0  0  0  0  0  0  0  0  0
   -0.9690    2.9135   -0.5730 C   0  0  0  0  0  0  0  0  0  0  0  0
    2.4345    1.0098   -1.1967 C   0  0  0  0  0  0  0  0  0  0  0  0
   -3.2709   -1.5108    0.9492 C   0  0  0  0  0  0  0  0  0  0  0  0
   -5.1530   -0.6069   -0.3259 C   0  0  0  0  0  0  0  0  0  0  0  0
    3.5139   -0.0327   -1.1473 C   0  0  0  0  0  0  0  0  0  0  0  0
    3.7687    2.7498   -0.0607 C   0  0  0  0  0  0  0  0  0  0  0  0
    3.6305   -0.8634   -0.0328 C   0  0  0  0  0  0  0  0  0  0  0  0
    4.4006   -0.1700   -2.2154 C   0  0  0  0  0  0  0  0  0  0  0  0
   -5.5960   -0.0574   -1.5043 C   0  0  0  0  0  0  0  0  0  0  0  0
   -6.2853   -1.2484    0.2108 C   0  0  0  0  0  0  0  0  0  0  0  0
    4.6337   -1.8315    0.0136 C   0  0  0  0  0  0  0  0  0  0  0  0
    5.4040   -1.1378   -2.1688 C   0  0  0  0  0  0  0  0  0  0  0  0
    5.5204   -1.9688   -1.0545 C   0  0  0  0  0  0  0  0  0  0  0  0
    3.8075   -2.4459    2.1574 C   0  0  0  0  0  0  0  0  0  0  0  0
    0.8542   -0.4244    2.0482 H   0  0  0  0  0  0  0  0  0  0  0  0
   -3.4530    1.4508   -0.7614 H   0  0  0  0  0  0  0  0  0  0  0  0
   -1.5567   -2.2262    2.0498 H   0  0  0  0  0  0  0  0  0  0  0  0
   -1.0255    2.6505   -1.6325 H   0  0  0  0  0  0  0  0  0  0  0  0
   -0.1356    3.5980   -0.4047 H   0  0  0  0  0  0  0  0  0  0  0  0
   -1.8953    3.3929   -0.2454 H   0  0  0  0  0  0  0  0  0  0  0  0
    2.4894    1.5906   -2.1258 H   0  0  0  0  0  0  0  0  0  0  0  0
    1.4645    0.5058   -1.2130 H   0  0  0  0  0  0  0  0  0  0  0  0
   -3.8515   -2.3969    1.1970 H   0  0  0  0  0  0  0  0  0  0  0  0
    4.6127    2.1051    0.1991 H   0  0  0  0  0  0  0  0  0  0  0  0
    3.7041    3.5465    0.6851 H   0  0  0  0  0  0  0  0  0  0  0  0
    3.9345    3.2033   -1.0423 H   0  0  0  0  0  0  0  0  0  0  0  0
    2.9185   -0.7184    0.7698 H   0  0  0  0  0  0  0  0  0  0  0  0
    4.3226    0.4704   -3.0899 H   0  0  0  0  0  0  0  0  0  0  0  0
   -5.1147    0.5219   -2.2802 H   0  0  0  0  0  0  0  0  0  0  0  0
   -6.3770   -1.8039    1.1337 H   0  0  0  0  0  0  0  0  0  0  0  0
    6.0946   -1.2445   -3.0002 H   0  0  0  0  0  0  0  0  0  0  0  0
    6.3040   -2.7208   -1.0240 H   0  0  0  0  0  0  0  0  0  0  0  0
   -7.5645   -0.1558   -2.3385 H   0  0  0  0  0  0  0  0  0  0  0  0
    4.0457   -3.1732    2.9404 H   0  0  0  0  0  0  0  0  0  0  0  0
    2.7836   -2.6549    1.8288 H   0  0  0  0  0  0  0  0  0  0  0  0
    3.9055   -1.4512    2.6056 H   0  0  0  0  0  0  0  0  0  0  0  0
  1 12  2  0  0  0  0
  2 25  1  0  0  0  0
  2 28  1  0  0  0  0
  3  7  1  0  0  0  0
  3  8  1  0  0  0  0
  3 15  1  0  0  0  0
  4 12  1  0  0  0  0
  4 16  1  0  0  0  0
  4 20  1  0  0  0  0
  5  6  1  0  0  0  0
  5 23  1  0  0  0  0
  5 47  1  0  0  0  0
  6 24  2  0  0  0  0
  7  9  2  0  0  0  0
  7 11  1  0  0  0  0
  8 10  2  0  0  0  0
  8 12  1  0  0  0  0
  9 10  1  0  0  0  0
  9 14  1  0  0  0  0
 10 29  1  0  0  0  0
 11 13  2  0  0  0  0
 11 30  1  0  0  0  0
 13 17  1  0  0  0  0
 13 18  1  0  0  0  0
 14 17  2  0  0  0  0
 14 31  1  0  0  0  0
 15 32  1  0  0  0  0
 15 33  1  0  0  0  0
 15 34  1  0  0  0  0
 16 19  1  0  0  0  0
 16 35  1  0  0  0  0
 16 36  1  0  0  0  0
 17 37  1  0  0  0  0
 18 23  2  0  0  0  0
 18 24  1  0  0  0  0
 19 21  2  0  0  0  0
 19 22  1  0  0  0  0
 20 38  1  0  0  0  0
 20 39  1  0  0  0  0
 20 40  1  0  0  0  0
 21 25  1  0  0  0  0
 21 41  1  0  0  0  0
 22 26  2  0  0  0  0
 22 42  1  0  0  0  0
 23 43  1  0  0  0  0
 24 44  1  0  0  0  0
 25 27  2  0  0  0  0
 26 27  1  0  0  0  0
 26 45  1  0  0  0  0
 27 46  1  0  0  0  0
 28 48  1  0  0  0  0
 28 49  1  0  0  0  0
 28 50  1  0  0  0  0
M  END
> <PUBCHEM_COMPOUND_CID>
57390719

> <PUBCHEM_CONFORMER_RMSD>
0.8

> <PUBCHEM_CONFORMER_DIVERSEORDER>
2
56
30
74
220
50
235
226
177
210
207
172
234
197
209
211
20
183
145
181
192
178
155
96
217
148
166
70
175
214
141
191
160
233
236
58
115
221
194
193
33
215
174
164
89
69
121
212
11
76
68
187
86
188
200
189
204
144
10
105
173
37
140
154
101
146
216
84
136
75
202
102
170
129
225
32
72
206
92
63
223
28
124
54
147
88
55
15
27
97
67
78
195
83
137
123
118
152
153
107
24
182
111
13
222
23
231
179
198
71
149
22
40
205
34
35
143
199
163
184
203
232
213
49
185
190
14
162
157
151
36
104
90
66
57
126
6
53
41
230
180
46
122
93
186
12
116
5
43
80
39
132
119
165
17
3
62
156
171
16
127
208
38
228
48
110
112
103
176
19
73
47
130
196
52
158
91
139
109
82
85
65
218
9
201
167
135
61
95
138
94
114
125
87
44
99
224
131
1
51
100
113
159
60
77
29
142
168
117
42
219
45
59
133
161
106
128
134
98
227
108
26
169
4
120
8
25
31
7
21
18
229
81
150
64
79

> <PUBCHEM_MMFF94_PARTIAL_CHARGES>
38
1 -0.57
10 -0.15
11 -0.15
12 0.71
13 0.05
14 -0.15
15 0.26
16 0.44
17 -0.15
18 -0.05
19 -0.14
2 -0.36
20 0.3
21 -0.15
22 -0.15
23 -0.3
24 0.14
25 0.08
26 -0.15
27 -0.15
28 0.28
29 0.15
3 0.05
30 0.15
31 0.15
37 0.15
4 -0.66
41 0.15
42 0.15
43 0.15
44 0.15
45 0.15
46 0.15
47 0.27
5 0.3
6 -0.71
7 -0.15
8 -0.24

> <PUBCHEM_EFFECTIVE_ROTOR_COUNT>
6

> <PUBCHEM_PHARMACOPHORE_FEATURES>
9
1 1 acceptor
1 2 acceptor
1 3 cation
1 5 donor
1 6 acceptor
5 3 7 8 9 10 rings
5 5 6 18 23 24 rings
6 19 21 22 25 26 27 rings
6 7 9 11 13 14 17 rings

> <PUBCHEM_HEAVY_ATOM_COUNT>
28

> <PUBCHEM_ATOM_DEF_STEREO_COUNT>
0

> <PUBCHEM_ATOM_UDEF_STEREO_COUNT>
0

> <PUBCHEM_BOND_DEF_STEREO_COUNT>
0

> <PUBCHEM_BOND_UDEF_STEREO_COUNT>
0

> <PUBCHEM_ISOTOPIC_ATOM_COUNT>
0

> <PUBCHEM_COMPONENT_COUNT>
1

> <PUBCHEM_CACTVS_TAUTO_COUNT>
5

> <PUBCHEM_CONFORMER_ID>
036BB67F00000002

> <PUBCHEM_MMFF94_ENERGY>
79.5578

> <PUBCHEM_FEATURE_SELFOVERLAP>
45.764

> <PUBCHEM_SHAPE_FINGERPRINT>
10319926 262 12462752593592756092
10378564 45 18040989635891353359
10622 236 17753323167772347274
10670039 82 17240475876179594557
10693767 8 18340193172812719367
10721379 63 14490738019583546024
11069576 57 18042410128096587318
12166972 35 17418380181483858778
13533116 47 18059857315564380217
13631057 29 18339371743542970542
13782708 43 18201155555451358103
14347332 77 18342736291741594849
14848178 5 17346881156590810935
14910302 57 18040989665940456421
14931854 50 18041293075737718718
15183329 4 17676207940151649671
15188451 53 16343706504278525559
15342168 16 11025796517809313705
15475509 8 18260270746542450829
15664445 248 17604430841896483004
17134984 74 18114185263261777010
18222031 100 17917436410535145398
19377110 9 9151162148252241257
1979834 28 9727637206722572946
20028762 73 17346885537273136142
20567600 234 10159695803068746343
20645477 70 18272938262222117980
20775438 99 18126829723905867478
21279426 13 18335130978465682029
21315764 119 17458064846228464807
21641784 216 16515671239992390501
21703447 108 18343297085363438936
21781051 124 17458351879325334899
21792934 111 11311792670055816395
2303208 19 18188496895249943331
23536364 44 18335973174344918853
23559900 14 18261116330237760180
23569914 152 17692789525340237381
23569943 247 18341055117057117187
249057 25 14201656668824346749
27425 322 13912901881223429066
2838139 119 13479126925961918247
3004659 81 18343025496920642062
3472631 163 13984956168073073110
3729539 64 18040995103606897563
38570 142 13623533437268771558
3886686 26 13825121073207524511
392239 28 13973670686188463694
397830 11 9799688230046146173
463206 1 18341898497655938222
5718773 13 18200879457473275262
5951187 136 15719962461704317804
59682541 52 17749102275376055983
6443934 186 11815602112619980119
6669772 16 18265042708004241578
7970288 3 17988090984908165558
86090 222 16486431909646629550
8988823 20 17489583510789964104
960060 61 18040722471740534590
9862260 156 16588291745138746226

> <PUBCHEM_SHAPE_MULTIPOLES>
544.56
15.91
3
1.89
17.67
1.34
0.21
-10.96
8.7
-3.78
-1.19
-1.63
-0.46
0.12

> <PUBCHEM_SHAPE_SELFOVERLAP>
1199.71

> <PUBCHEM_SHAPE_VOLUME>
298.3

> <PUBCHEM_COORDINATE_TYPE>
2
5
10

$$$$
52934834
  -OEChem-05102415083D

 61 64  0     0  0  0  0  0  0999 V2000
    1.9857   -1.3764   -2.0265 O   0  0  0  0  0  0  0  0  0  0  0  0
    5.1296    2.3241   -0.4887 O   0  0  0  0  0  0  0  0  0  0  0  0
   -0.5862   -0.5614   -0.2989 N   0  0  0  0  0  0  0  0  0  0  0  0
    0.5401    2.9952   -0.4874 N   0  0  0  0  0  0  0  0  0  0  0  0
    2.2953   -2.2303    0.1274 N   0  0  0  0  0  0  0  0  0  0  0  0
   -6.6445    2.0711    0.8758 N   0  0  0  0  0  0  0  0  0  0  0  0
   -7.4169    1.0437    1.2680 N   0  0  0  0  0  0  0  0  0  0  0  0
   -1.9420   -0.7991   -0.2703 C   0  0  0  0  0  0  0  0  0  0  0  0
    0.0484    0.6722    0.1184 C   0  0  0  0  0  0  0  0  0  0  0  0
    0.0757   -1.6591   -0.7799 C   0  0  0  0  0  0  0  0  0  0  0  0
   -2.1422   -2.0948   -0.7516 C   0  0  0  0  0  0  0  0  0  0  0  0
   -0.8604   -2.6253   -1.0684 C   0  0  0  0  0  0  0  0  0  0  0  0
   -0.0983    1.7647   -0.9401 C   0  0  0  0  0  0  0  0  0  0  0  0
   -2.9957    0.0252    0.1406 C   0  0  0  0  0  0  0  0  0  0  0  0
    1.4953   -1.7469   -0.9393 C   0  0  0  0  0  0  0  0  0  0  0  0
   -3.4575   -2.5941   -0.8280 C   0  0  0  0  0  0  0  0  0  0  0  0
   -4.2915   -0.4916    0.0563 C   0  0  0  0  0  0  0  0  0  0  0  0
   -4.5213   -1.7808   -0.4202 C   0  0  0  0  0  0  0  0  0  0  0  0
    3.7510   -2.3408    0.0597 C   0  0  0  0  0  0  0  0  0  0  0  0
   -5.4027    0.3209    0.4693 C   0  0  0  0  0  0  0  0  0  0  0  0
    0.8539    3.8616   -1.6249 C   0  0  0  0  0  0  0  0  0  0  0  0
   -0.3181    3.7002    0.4662 C   0  0  0  0  0  0  0  0  0  0  0  0
    1.6886   -2.6538    1.3816 C   0  0  0  0  0  0  0  0  0  0  0  0
    4.4327   -1.1063    0.5750 C   0  0  0  0  0  0  0  0  0  0  0  0
   -5.4279    1.6919    0.3896 C   0  0  0  0  0  0  0  0  0  0  0  0
   -6.6529   -0.0228    1.0173 C   0  0  0  0  0  0  0  0  0  0  0  0
    4.4644    0.0498   -0.2049 C   0  0  0  0  0  0  0  0  0  0  0  0
    5.0352   -1.1156    1.8331 C   0  0  0  0  0  0  0  0  0  0  0  0
    5.0983    1.1967    0.2731 C   0  0  0  0  0  0  0  0  0  0  0  0
    5.6694    0.0312    2.3111 C   0  0  0  0  0  0  0  0  0  0  0  0
    5.7007    1.1874    1.5314 C   0  0  0  0  0  0  0  0  0  0  0  0
    4.4938    2.2631   -1.7647 C   0  0  0  0  0  0  0  0  0  0  0  0
   -0.4110    0.9496    1.0733 H   0  0  0  0  0  0  0  0  0  0  0  0
    1.1053    0.4769    0.3300 H   0  0  0  0  0  0  0  0  0  0  0  0
   -0.6500   -3.6096   -1.4651 H   0  0  0  0  0  0  0  0  0  0  0  0
    0.3983    1.3984   -1.8495 H   0  0  0  0  0  0  0  0  0  0  0  0
   -1.1466    1.9319   -1.2185 H   0  0  0  0  0  0  0  0  0  0  0  0
   -2.7940    1.0206    0.5233 H   0  0  0  0  0  0  0  0  0  0  0  0
   -3.6507   -3.5967   -1.1987 H   0  0  0  0  0  0  0  0  0  0  0  0
   -5.5292   -2.1842   -0.4929 H   0  0  0  0  0  0  0  0  0  0  0  0
    4.0429   -2.4936   -0.9867 H   0  0  0  0  0  0  0  0  0  0  0  0
    4.0705   -3.2384    0.6025 H   0  0  0  0  0  0  0  0  0  0  0  0
    1.5220    3.3571   -2.3308 H   0  0  0  0  0  0  0  0  0  0  0  0
    1.3789    4.7623   -1.2878 H   0  0  0  0  0  0  0  0  0  0  0  0
   -0.0473    4.1697   -2.1677 H   0  0  0  0  0  0  0  0  0  0  0  0
   -0.4904    3.1098    1.3711 H   0  0  0  0  0  0  0  0  0  0  0  0
   -1.2906    3.9635    0.0341 H   0  0  0  0  0  0  0  0  0  0  0  0
    0.1655    4.6259    0.7991 H   0  0  0  0  0  0  0  0  0  0  0  0
    1.9491   -3.7023    1.5567 H   0  0  0  0  0  0  0  0  0  0  0  0
    0.6029   -2.5664    1.4075 H   0  0  0  0  0  0  0  0  0  0  0  0
    2.0956   -2.0438    2.1935 H   0  0  0  0  0  0  0  0  0  0  0  0
   -4.7191    2.4279    0.0352 H   0  0  0  0  0  0  0  0  0  0  0  0
   -7.0458   -1.0027    1.2500 H   0  0  0  0  0  0  0  0  0  0  0  0
    3.9967    0.0023   -1.1809 H   0  0  0  0  0  0  0  0  0  0  0  0
    5.0166   -2.0090    2.4515 H   0  0  0  0  0  0  0  0  0  0  0  0
   -7.0123    3.0099    0.9666 H   0  0  0  0  0  0  0  0  0  0  0  0
    6.1381    0.0242    3.2908 H   0  0  0  0  0  0  0  0  0  0  0  0
    6.1959    2.0777    1.9092 H   0  0  0  0  0  0  0  0  0  0  0  0
    4.9995    1.5544   -2.4293 H   0  0  0  0  0  0  0  0  0  0  0  0
    3.4243    2.0509   -1.6726 H   0  0  0  0  0  0  0  0  0  0  0  0
    4.5861    3.2540   -2.2209 H   0  0  0  0  0  0  0  0  0  0  0  0
  1 15  2  0  0  0  0
  2 29  1  0  0  0  0
  2 32  1  0  0  0  0
  3  8  1  0  0  0  0
  3  9  1  0  0  0  0
  3 10  1  0  0  0  0
  4 13  1  0  0  0  0
  4 21  1  0  0  0  0
  4 22  1  0  0  0  0
  5 15  1  0  0  0  0
  5 19  1  0  0  0  0
  5 23  1  0  0  0  0
  6  7  1  0  0  0  0
  6 25  1  0  0  0  0
  6 56  1  0  0  0  0
  7 26  2  0  0  0  0
  8 11  2  0  0  0  0
  8 14  1  0  0  0  0
  9 13  1  0  0  0  0
  9 33  1  0  0  0  0
  9 34  1  0  0  0  0
 10 12  2  0  0  0  0
 10 15  1  0  0  0  0
 11 12  1  0  0  0  0
 11 16  1  0  0  0  0
 12 35  1  0  0  0  0
 13 36  1  0  0  0  0
 13 37  1  0  0  0  0
 14 17  2  0  0  0  0
 14 38  1  0  0  0  0
 16 18  2  0  0  0  0
 16 39  1  0  0  0  0
 17 18  1  0  0  0  0
 17 20  1  0  0  0  0
 18 40  1  0  0  0  0
 19 24  1  0  0  0  0
 19 41  1  0  0  0  0
 19 42  1  0  0  0  0
 20 25  2  0  0  0  0
 20 26  1  0  0  0  0
 21 43  1  0  0  0  0
 21 44  1  0  0  0  0
 21 45  1  0  0  0  0
 22 46  1  0  0  0  0
 22 47  1  0  0  0  0
 22 48  1  0  0  0  0
 23 49  1  0  0  0  0
 23 50  1  0  0  0  0
 23 51  1  0  0  0  0
 24 27  2  0  0  0  0
 24 28  1  0  0  0  0
 25 52  1  0  0  0  0
 26 53  1  0  0  0  0
 27 29  1  0  0  0  0
 27 54  1  0  0  0  0
 28 30  2  0  0  0  0
 28 55  1  0  0  0  0
 29 31  2  0  0  0  0
 30 31  1  0  0  0  0
 30 57  1  0  0  0  0
 31 58  1  0  0  0  0
 32 59  1  0  0  0  0
 32 60  1  0  0  0  0
 32 61  1  0  0  0  0
M  END
> <PUBCHEM_COMPOUND_CID>
52934834

> <PUBCHEM_CONFORMER_RMSD>
1

> <PUBCHEM_CONFORMER_DIVERSEORDER>
1
69
90
75
144
133
174
45
54
106
158
207
217
209
116
219
162
152
135
11
49
153
179
73
50
130
186
201
70
181
190
136
159
137
128
204
86
192
171
163
166
140
117
44
51
125
68
96
212
120
198
118
103
81
67
188
150
92
95
178
38
4
180
47
168
167
121
105
10
145
210
91
194
148
151
147
199
191
114
182
27
94
78
3
93
165
119
157
65
82
134
155
132
183
108
129
53
31
161
30
123
89
32
205
55
85
80
113
172
104
131
215
111
214
62
196
26
61
185
20
99
36
160
77
195
184
175
124
35
72
66
164
63
13
6
216
176
208
203
25
97
40
154
189
79
60
127
83
200
88
15
84
142
211
56
173
33
126
41
112
156
12
100
43
37
102
39
57
5
42
206
14
187
18
115
48
74
177
218
64
107
169
28
138
213
110
58
143
21
24
76
29
197
46
202
139
9
149
8
122
109
101
7
193
146
22
16
17
71
59
141
87
34
2
170
98
19
23
52

> <PUBCHEM_MMFF94_PARTIAL_CHARGES>
42
1 -0.57
10 -0.24
12 -0.15
13 0.27
14 -0.15
15 0.71
16 -0.15
17 0.05
18 -0.15
19 0.44
2 -0.36
20 -0.05
21 0.27
22 0.27
23 0.3
24 -0.14
25 -0.3
26 0.14
27 -0.15
28 -0.15
29 0.08
3 0.05
30 -0.15
31 -0.15
32 0.28
35 0.15
38 0.15
39 0.15
4 -0.81
40 0.15
5 -0.66
52 0.15
53 0.15
54 0.15
55 0.15
56 0.27
57 0.15
58 0.15
6 0.3
7 -0.71
8 -0.15
9 0.26

> <PUBCHEM_EFFECTIVE_ROTOR_COUNT>
9

> <PUBCHEM_PHARMACOPHORE_FEATURES>
10
1 1 acceptor
1 2 acceptor
1 3 cation
1 4 cation
1 6 donor
1 7 acceptor
5 3 8 10 11 12 rings
5 6 7 20 25 26 rings
6 24 27 28 29 30 31 rings
6 8 11 14 16 17 18 rings

> <PUBCHEM_HEAVY_ATOM_COUNT>
32

> <PUBCHEM_ATOM_DEF_STEREO_COUNT>
0

> <PUBCHEM_ATOM_UDEF_STEREO_COUNT>
0

> <PUBCHEM_BOND_DEF_STEREO_COUNT>
0

> <PUBCHEM_BOND_UDEF_STEREO_COUNT>
0

> <PUBCHEM_ISOTOPIC_ATOM_COUNT>
0

> <PUBCHEM_COMPONENT_COUNT>
1

> <PUBCHEM_CACTVS_TAUTO_COUNT>
5

> <PUBCHEM_CONFORMER_ID>
0327B8B200000001

> <PUBCHEM_MMFF94_ENERGY>
86.0172

> <PUBCHEM_FEATURE_SELFOVERLAP>
50.839

> <PUBCHEM_SHAPE_FINGERPRINT>
10 15 18410580583033965291
10006869 2 18195235633631954431
10439779 11 18271815626950025505
10906281 52 18338244850423074831
10939801 23 18337675334003241128
11227688 84 17116907575546966583
11297750 10 17624429579462725086
11578080 2 12102752717452146427
12422481 6 18334854991697410173
13782708 43 13695875835400360771
14020679 6 17968380142898719923
14341114 328 18263071258281896194
14394314 77 18264766743988373940
14790565 3 18339926020934106342
14840074 17 18411423911956054840
15183329 4 18336263539376125621
15274700 259 17969761027210449613
15840311 113 18336831901236051575
16110190 28 18409448077335175497
17980427 23 18131061658857170639
19958102 18 10519979344899210323
20642791 178 18264495163919201757
21033648 29 17632001035643500675
21792934 111 18265608793431429817
23559900 14 17988373559370240654
24771293 8 18201714059575369089
34797466 226 16271646822739051758
350125 39 18342454791195728838
3680242 22 18260542334150498298
392239 28 18040983051886395730
5104073 3 18408317787387175355
653340 110 18126007057359061177
6669772 16 10738441391542007598

> <PUBCHEM_SHAPE_MULTIPOLES>
621.9
16.11
4.11
1.62
11.83
2.52
-0.17
5.06
-8.86
-0.92
1.29
-1.78
0.17
-2.4

> <PUBCHEM_SHAPE_SELFOVERLAP>
1346.522

> <PUBCHEM_SHAPE_VOLUME>
346.8

> <PUBCHEM_COORDINATE_TYPE>
2
5
10

$$$$
52933915
  -OEChem-05102415083D

 62 66  0     0  0  0  0  0  0999 V2000
    1.9856   -1.6319    1.9248 O   0  0  0  0  0  0  0  0  0  0  0  0
    6.2639   -2.7740   -0.6080 O   0  0  0  0  0  0  0  0  0  0  0  0
    0.1467    3.4137   -0.0925 N   0  0  0  0  0  0  0  0  0  0  0  0
    2.1915    0.4597    0.8552 N   0  0  0  0  0  0  0  0  0  0  0  0
   -0.9617   -0.5875    1.2419 N   0  0  0  0  0  0  0  0  0  0  0  0
   -7.6234   -0.2074    0.5425 N   0  0  0  0  0  0  0  0  0  0  0  0
   -7.9815   -1.3133   -0.1322 N   0  0  0  0  0  0  0  0  0  0  0  0
   -1.0524    2.8877   -0.7441 C   0  0  0  0  0  0  0  0  0  0  0  0
   -0.3006    4.6129    0.6152 C   0  0  0  0  0  0  0  0  0  0  0  0
   -1.7260    4.1413   -1.2828 C   0  0  0  0  0  0  0  0  0  0  0  0
   -1.2292    5.2756   -0.3917 C   0  0  0  0  0  0  0  0  0  0  0  0
    0.7672    2.4429    0.7967 C   0  0  0  0  0  0  0  0  0  0  0  0
    1.5776    1.4346   -0.0045 C   0  0  0  0  0  0  0  0  0  0  0  0
    3.5319    0.7811    1.3566 C   0  0  0  0  0  0  0  0  0  0  0  0
    1.5383   -0.7447    1.1991 C   0  0  0  0  0  0  0  0  0  0  0  0
    0.2003   -0.9791    0.6330 C   0  0  0  0  0  0  0  0  0  0  0  0
    4.6085    0.3239    0.4153 C   0  0  0  0  0  0  0  0  0  0  0  0
   -2.0454   -0.9457    0.4720 C   0  0  0  0  0  0  0  0  0  0  0  0
   -1.5479   -1.5866   -0.6647 C   0  0  0  0  0  0  0  0  0  0  0  0
   -0.1297   -1.6010   -0.5490 C   0  0  0  0  0  0  0  0  0  0  0  0
    4.9398   -1.0290    0.3391 C   0  0  0  0  0  0  0  0  0  0  0  0
    5.2781    1.2518   -0.3824 C   0  0  0  0  0  0  0  0  0  0  0  0
   -3.4138   -0.7533    0.6927 C   0  0  0  0  0  0  0  0  0  0  0  0
   -2.4589   -2.0589   -1.6303 C   0  0  0  0  0  0  0  0  0  0  0  0
   -4.2986   -1.2308   -0.2785 C   0  0  0  0  0  0  0  0  0  0  0  0
   -3.8308   -1.8739   -1.4227 C   0  0  0  0  0  0  0  0  0  0  0  0
    5.9404   -1.4540   -0.5348 C   0  0  0  0  0  0  0  0  0  0  0  0
    6.2790    0.8270   -1.2561 C   0  0  0  0  0  0  0  0  0  0  0  0
   -5.7124   -1.0542   -0.0918 C   0  0  0  0  0  0  0  0  0  0  0  0
    6.6099   -0.5260   -1.3326 C   0  0  0  0  0  0  0  0  0  0  0  0
   -6.2752   -0.0068    0.5957 C   0  0  0  0  0  0  0  0  0  0  0  0
   -6.8100   -1.8263   -0.5172 C   0  0  0  0  0  0  0  0  0  0  0  0
    5.5391   -3.6676    0.2361 C   0  0  0  0  0  0  0  0  0  0  0  0
   -1.7219    2.3909   -0.0304 H   0  0  0  0  0  0  0  0  0  0  0  0
   -0.8238    2.1872   -1.5531 H   0  0  0  0  0  0  0  0  0  0  0  0
   -0.8593    4.3606    1.5257 H   0  0  0  0  0  0  0  0  0  0  0  0
    0.5324    5.2690    0.8865 H   0  0  0  0  0  0  0  0  0  0  0  0
   -1.4284    4.3284   -2.3213 H   0  0  0  0  0  0  0  0  0  0  0  0
   -2.8168    4.0533   -1.2565 H   0  0  0  0  0  0  0  0  0  0  0  0
   -2.0561    5.7934    0.1047 H   0  0  0  0  0  0  0  0  0  0  0  0
   -0.6863    6.0114   -0.9966 H   0  0  0  0  0  0  0  0  0  0  0  0
    1.4598    2.9663    1.4696 H   0  0  0  0  0  0  0  0  0  0  0  0
    0.0315    1.9606    1.4496 H   0  0  0  0  0  0  0  0  0  0  0  0
    2.3605    1.9495   -0.5750 H   0  0  0  0  0  0  0  0  0  0  0  0
    0.9558    0.9379   -0.7534 H   0  0  0  0  0  0  0  0  0  0  0  0
    3.6735    0.2813    2.3231 H   0  0  0  0  0  0  0  0  0  0  0  0
    3.5976    1.8571    1.5555 H   0  0  0  0  0  0  0  0  0  0  0  0
   -1.0197   -0.1087    2.1302 H   0  0  0  0  0  0  0  0  0  0  0  0
    0.5719   -2.0211   -1.2573 H   0  0  0  0  0  0  0  0  0  0  0  0
    4.4016   -1.7087    0.9886 H   0  0  0  0  0  0  0  0  0  0  0  0
   -3.7481   -0.2596    1.5997 H   0  0  0  0  0  0  0  0  0  0  0  0
    5.0299    2.3087   -0.3334 H   0  0  0  0  0  0  0  0  0  0  0  0
   -2.1074   -2.5606   -2.5274 H   0  0  0  0  0  0  0  0  0  0  0  0
   -4.5161   -2.2410   -2.1838 H   0  0  0  0  0  0  0  0  0  0  0  0
    6.8003    1.5494   -1.8773 H   0  0  0  0  0  0  0  0  0  0  0  0
    7.3904   -0.8509   -2.0152 H   0  0  0  0  0  0  0  0  0  0  0  0
   -5.8632    0.8538    1.1045 H   0  0  0  0  0  0  0  0  0  0  0  0
   -6.8136   -2.7437   -1.0892 H   0  0  0  0  0  0  0  0  0  0  0  0
   -8.3538    0.3690    0.9414 H   0  0  0  0  0  0  0  0  0  0  0  0
    5.7180   -3.4549    1.2955 H   0  0  0  0  0  0  0  0  0  0  0  0
    4.4722   -3.6802   -0.0117 H   0  0  0  0  0  0  0  0  0  0  0  0
    5.9227   -4.6751    0.0441 H   0  0  0  0  0  0  0  0  0  0  0  0
  1 15  2  0  0  0  0
  2 27  1  0  0  0  0
  2 33  1  0  0  0  0
  3  8  1  0  0  0  0
  3  9  1  0  0  0  0
  3 12  1  0  0  0  0
  4 13  1  0  0  0  0
  4 14  1  0  0  0  0
  4 15  1  0  0  0  0
  5 16  1  0  0  0  0
  5 18  1  0  0  0  0
  5 48  1  0  0  0  0
  6  7  1  0  0  0  0
  6 31  1  0  0  0  0
  6 59  1  0  0  0  0
  7 32  2  0  0  0  0
  8 10  1  0  0  0  0
  8 34  1  0  0  0  0
  8 35  1  0  0  0  0
  9 11  1  0  0  0  0
  9 36  1  0  0  0  0
  9 37  1  0  0  0  0
 10 11  1  0  0  0  0
 10 38  1  0  0  0  0
 10 39  1  0  0  0  0
 11 40  1  0  0  0  0
 11 41  1  0  0  0  0
 12 13  1  0  0  0  0
 12 42  1  0  0  0  0
 12 43  1  0  0  0  0
 13 44  1  0  0  0  0
 13 45  1  0  0  0  0
 14 17  1  0  0  0  0
 14 46  1  0  0  0  0
 14 47  1  0  0  0  0
 15 16  1  0  0  0  0
 16 20  2  0  0  0  0
 17 21  2  0  0  0  0
 17 22  1  0  0  0  0
 18 19  2  0  0  0  0
 18 23  1  0  0  0  0
 19 20  1  0  0  0  0
 19 24  1  0  0  0  0
 20 49  1  0  0  0  0
 21 27  1  0  0  0  0
 21 50  1  0  0  0  0
 22 28  2  0  0  0  0
 22 52  1  0  0  0  0
 23 25  2  0  0  0  0
 23 51  1  0  0  0  0
 24 26  2  0  0  0  0
 24 53  1  0  0  0  0
 25 26  1  0  0  0  0
 25 29  1  0  0  0  0
 26 54  1  0  0  0  0
 27 30  2  0  0  0  0
 28 30  1  0  0  0  0
 28 55  1  0  0  0  0
 29 31  2  0  0  0  0
 29 32  1  0  0  0  0
 30 56  1  0  0  0  0
 31 57  1  0  0  0  0
 32 58  1  0  0  0  0
 33 60  1  0  0  0  0
 33 61  1  0  0  0  0
 33 62  1  0  0  0  0
M  END
> <PUBCHEM_COMPOUND_CID>
52933915

> <PUBCHEM_CONFORMER_RMSD>
1

> <PUBCHEM_CONFORMER_DIVERSEORDER>
1
48
143
98
133
144
108
73
23
132
112
31
45
166
96
27
167
147
18
49
66
68
97
75
74
162
51
34
129
126
81
99
103
52
13
116
163
30
101
104
182
113
59
86
136
65
87
156
10
178
53
25
15
148
171
72
26
109
67
92
165
80
42
130
41
121
32
160
164
79
155
127
110
100
138
114
183
16
128
64
172
43
157
149
54
158
153
106
14
102
62
94
137
39
174
29
56
177
44
140
77
28
135
169
118
115
179
19
58
117
47
145
21
71
50
119
139
146
123
111
61
142
151
76
159
107
168
78
33
35
70
63
83
105
57
141
22
150
20
89
161
154
88
180
12
152
181
17
170
69
91
6
95
24
120
9
134
90
82
11
36
93
38
60
55
131
173
7
5
2
37
40
4
46
122
175
84
85
8
3
176
124
125

> <PUBCHEM_MMFF94_PARTIAL_CHARGES>
42
1 -0.57
12 0.27
13 0.3
14 0.44
15 0.71
16 -0.24
17 -0.14
18 -0.15
2 -0.36
20 -0.15
21 -0.15
22 -0.15
23 -0.15
24 -0.15
25 0.05
26 -0.15
27 0.08
28 -0.15
29 -0.05
3 -0.81
30 -0.15
31 -0.3
32 0.14
33 0.28
4 -0.66
48 0.27
49 0.15
5 0.03
50 0.15
51 0.15
52 0.15
53 0.15
54 0.15
55 0.15
56 0.15
57 0.15
58 0.15
59 0.27
6 0.3
7 -0.71
8 0.27
9 0.27

> <PUBCHEM_EFFECTIVE_ROTOR_COUNT>
10

> <PUBCHEM_PHARMACOPHORE_FEATURES>
12
1 1 acceptor
1 2 acceptor
1 3 cation
1 5 cation
1 5 donor
1 6 donor
1 7 acceptor
5 3 8 9 10 11 rings
5 5 16 18 19 20 rings
5 6 7 29 31 32 rings
6 17 21 22 27 28 30 rings
6 18 19 23 24 25 26 rings

> <PUBCHEM_HEAVY_ATOM_COUNT>
33

> <PUBCHEM_ATOM_DEF_STEREO_COUNT>
0

> <PUBCHEM_ATOM_UDEF_STEREO_COUNT>
0

> <PUBCHEM_BOND_DEF_STEREO_COUNT>
0

> <PUBCHEM_BOND_UDEF_STEREO_COUNT>
0

> <PUBCHEM_ISOTOPIC_ATOM_COUNT>
0

> <PUBCHEM_COMPONENT_COUNT>
1

> <PUBCHEM_CACTVS_TAUTO_COUNT>
23

> <PUBCHEM_CONFORMER_ID>
0327B51B00000001

> <PUBCHEM_MMFF94_ENERGY>
80.6626

> <PUBCHEM_FEATURE_SELFOVERLAP>
60.989

> <PUBCHEM_SHAPE_FINGERPRINT>
10319688 67 8285919008951470676
10675989 125 18190461744019738324
10940486 97 17915737776818854007
11331351 85 18130787884715019393
11796584 16 16916786357348662822
11991303 11 17827915126936723908
12166972 35 18130787927716933633
12788726 201 18261106375152395488
13540713 5 17751915814589574466
13590594 115 18409732885259950721
13617811 41 18334858342473306164
14117953 113 18342737408718013349
14347332 77 18338796711414139218
14681490 219 18408321086147956482
14918310 93 17560533810666895278
14955137 171 18337112371174538519
15183329 4 17703799127683310370
15198563 99 18335987475784525324
15276724 80 18410579483200778884
15297060 5 17417541199110754729
15439362 3 17978227493386027937
15444296 9 17917158199627962198
15475509 8 18343305898239937423
15840311 113 17917144031285265249
15849732 13 18201721794901094719
16067689 391 17770482154286699822
16628084 112 18338798888425261102
16994733 274 14707195601046987805
18335252 114 18339349864810701447
19611394 137 18115884060830775667
21285901 2 18131081406895147486
21641784 216 17822010883071861828
221357 26 18409167714744444976
23559900 14 16558461019282166515
23576562 1 18193545887178379495
24771293 8 17983277511996082360
24771750 20 17321842188676716260
249057 3 18340767161006008775
3004659 81 17346603001982710658
3103668 31 18262795156225254109
34797466 226 16660365891960124718
4144715 1 17972602366713513435
4340502 62 9079124357828233400
513202 73 18338240340744077466
7164475 11 18410009906645212224

> <PUBCHEM_SHAPE_MULTIPOLES>
642.48
18.2
5.15
1.33
7.19
8.68
0.03
-14.95
3.2
-0.1
1.04
-0.48
-0.16
-0.32

> <PUBCHEM_SHAPE_SELFOVERLAP>
1404.197

> <PUBCHEM_SHAPE_VOLUME>
352.7

> <PUBCHEM_COORDINATE_TYPE>
2
5
10

$$$$
57399461
  -OEChem-05102415083D

 61 64  0     0  0  0  0  0  0999 V2000
    1.9535    1.5668   -1.8346 O   0  0  0  0  0  0  0  0  0  0  0  0
    6.0955    2.6872    0.7910 O   0  0  0  0  0  0  0  0  0  0  0  0
    2.1754   -0.5868   -0.9533 N   0  0  0  0  0  0  0  0  0  0  0  0
   -0.9912    0.4508   -1.2581 N   0  0  0  0  0  0  0  0  0  0  0  0
   -0.6226   -3.5086    0.7587 N   0  0  0  0  0  0  0  0  0  0  0  0
   -7.6536   -0.0262   -0.6297 N   0  0  0  0  0  0  0  0  0  0  0  0
   -8.0226    1.0185    0.1311 N   0  0  0  0  0  0  0  0  0  0  0  0
    1.6376   -1.7064   -0.1833 C   0  0  0  0  0  0  0  0  0  0  0  0
    0.8609   -2.6947   -1.0513 C   0  0  0  0  0  0  0  0  0  0  0  0
    3.5109   -0.7816   -1.5002 C   0  0  0  0  0  0  0  0  0  0  0  0
    0.3073   -3.9040   -0.2921 C   0  0  0  0  0  0  0  0  0  0  0  0
    1.4683    0.6247   -1.1716 C   0  0  0  0  0  0  0  0  0  0  0  0
    0.1650    0.7985   -0.6127 C   0  0  0  0  0  0  0  0  0  0  0  0
   -2.0811    0.7382   -0.4675 C   0  0  0  0  0  0  0  0  0  0  0  0
   -1.5938    1.2869    0.7207 C   0  0  0  0  0  0  0  0  0  0  0  0
   -0.1751    1.3194    0.6144 C   0  0  0  0  0  0  0  0  0  0  0  0
    4.5807   -0.3694   -0.5309 C   0  0  0  0  0  0  0  0  0  0  0  0
   -3.4471    0.5561   -0.7109 C   0  0  0  0  0  0  0  0  0  0  0  0
   -2.5127    1.6729    1.7164 C   0  0  0  0  0  0  0  0  0  0  0  0
   -4.3400    0.9471    0.2910 C   0  0  0  0  0  0  0  0  0  0  0  0
   -3.8823    1.4970    1.4867 C   0  0  0  0  0  0  0  0  0  0  0  0
    4.8440    0.9836   -0.3168 C   0  0  0  0  0  0  0  0  0  0  0  0
    5.3119   -1.3393    0.1552 C   0  0  0  0  0  0  0  0  0  0  0  0
   -1.9225   -3.1494    0.1888 C   0  0  0  0  0  0  0  0  0  0  0  0
   -0.7785   -4.5833    1.7405 C   0  0  0  0  0  0  0  0  0  0  0  0
   -5.7517    0.7776    0.0826 C   0  0  0  0  0  0  0  0  0  0  0  0
    5.8384    1.3669    0.5834 C   0  0  0  0  0  0  0  0  0  0  0  0
    6.3064   -0.9561    1.0550 C   0  0  0  0  0  0  0  0  0  0  0  0
    6.5695    0.3969    1.2694 C   0  0  0  0  0  0  0  0  0  0  0  0
   -6.3040   -0.2135   -0.6916 C   0  0  0  0  0  0  0  0  0  0  0  0
   -6.8565    1.5055    0.5635 C   0  0  0  0  0  0  0  0  0  0  0  0
    5.3102    3.6248    0.0561 C   0  0  0  0  0  0  0  0  0  0  0  0
    0.9878   -1.3149    0.6047 H   0  0  0  0  0  0  0  0  0  0  0  0
    2.4610   -2.2175    0.3282 H   0  0  0  0  0  0  0  0  0  0  0  0
    0.0615   -2.1793   -1.5932 H   0  0  0  0  0  0  0  0  0  0  0  0
    1.5317   -3.0744   -1.8334 H   0  0  0  0  0  0  0  0  0  0  0  0
    3.6171   -0.1864   -2.4158 H   0  0  0  0  0  0  0  0  0  0  0  0
    3.6288   -1.8275   -1.8075 H   0  0  0  0  0  0  0  0  0  0  0  0
    1.1693   -4.4244    0.1466 H   0  0  0  0  0  0  0  0  0  0  0  0
   -0.1528   -4.6108   -0.9949 H   0  0  0  0  0  0  0  0  0  0  0  0
   -1.0414    0.0422   -2.1812 H   0  0  0  0  0  0  0  0  0  0  0  0
    0.5196    1.6846    1.3591 H   0  0  0  0  0  0  0  0  0  0  0  0
   -3.7734    0.1359   -1.6571 H   0  0  0  0  0  0  0  0  0  0  0  0
   -2.1693    2.1015    2.6536 H   0  0  0  0  0  0  0  0  0  0  0  0
   -4.5740    1.7963    2.2714 H   0  0  0  0  0  0  0  0  0  0  0  0
    4.2646    1.7002   -0.8847 H   0  0  0  0  0  0  0  0  0  0  0  0
    5.1172   -2.3969   -0.0017 H   0  0  0  0  0  0  0  0  0  0  0  0
   -2.3933   -3.9918   -0.3313 H   0  0  0  0  0  0  0  0  0  0  0  0
   -2.6038   -2.8157    0.9801 H   0  0  0  0  0  0  0  0  0  0  0  0
   -1.8431   -2.3166   -0.5135 H   0  0  0  0  0  0  0  0  0  0  0  0
   -1.4606   -4.2766    2.5415 H   0  0  0  0  0  0  0  0  0  0  0  0
   -1.1676   -5.5028    1.2883 H   0  0  0  0  0  0  0  0  0  0  0  0
    0.1806   -4.8111    2.2191 H   0  0  0  0  0  0  0  0  0  0  0  0
    6.8757   -1.7112    1.5892 H   0  0  0  0  0  0  0  0  0  0  0  0
    7.3454    0.6892    1.9716 H   0  0  0  0  0  0  0  0  0  0  0  0
   -5.8835   -1.0270   -1.2667 H   0  0  0  0  0  0  0  0  0  0  0  0
   -6.8691    2.3729    1.2086 H   0  0  0  0  0  0  0  0  0  0  0  0
   -8.3781   -0.5724   -1.0786 H   0  0  0  0  0  0  0  0  0  0  0  0
    5.6449    4.6254    0.3489 H   0  0  0  0  0  0  0  0  0  0  0  0
    4.2488    3.5547    0.3177 H   0  0  0  0  0  0  0  0  0  0  0  0
    5.4802    3.5348   -1.0222 H   0  0  0  0  0  0  0  0  0  0  0  0
  1 12  2  0  0  0  0
  2 27  1  0  0  0  0
  2 32  1  0  0  0  0
  3  8  1  0  0  0  0
  3 10  1  0  0  0  0
  3 12  1  0  0  0  0
  4 13  1  0  0  0  0
  4 14  1  0  0  0  0
  4 41  1  0  0  0  0
  5 11  1  0  0  0  0
  5 24  1  0  0  0  0
  5 25  1  0  0  0  0
  6  7  1  0  0  0  0
  6 30  1  0  0  0  0
  6 58  1  0  0  0  0
  7 31  2  0  0  0  0
  8  9  1  0  0  0  0
  8 33  1  0  0  0  0
  8 34  1  0  0  0  0
  9 11  1  0  0  0  0
  9 35  1  0  0  0  0
  9 36  1  0  0  0  0
 10 17  1  0  0  0  0
 10 37  1  0  0  0  0
 10 38  1  0  0  0  0
 11 39  1  0  0  0  0
 11 40  1  0  0  0  0
 12 13  1  0  0  0  0
 13 16  2  0  0  0  0
 14 15  2  0  0  0  0
 14 18  1  0  0  0  0
 15 16  1  0  0  0  0
 15 19  1  0  0  0  0
 16 42  1  0  0  0  0
 17 22  2  0  0  0  0
 17 23  1  0  0  0  0
 18 20  2  0  0  0  0
 18 43  1  0  0  0  0
 19 21  2  0  0  0  0
 19 44  1  0  0  0  0
 20 21  1  0  0  0  0
 20 26  1  0  0  0  0
 21 45  1  0  0  0  0
 22 27  1  0  0  0  0
 22 46  1  0  0  0  0
 23 28  2  0  0  0  0
 23 47  1  0  0  0  0
 24 48  1  0  0  0  0
 24 49  1  0  0  0  0
 24 50  1  0  0  0  0
 25 51  1  0  0  0  0
 25 52  1  0  0  0  0
 25 53  1  0  0  0  0
 26 30  2  0  0  0  0
 26 31  1  0  0  0  0
 27 29  2  0  0  0  0
 28 29  1  0  0  0  0
 28 54  1  0  0  0  0
 29 55  1  0  0  0  0
 30 56  1  0  0  0  0
 31 57  1  0  0  0  0
 32 59  1  0  0  0  0
 32 60  1  0  0  0  0
 32 61  1  0  0  0  0
M  END
> <PUBCHEM_COMPOUND_CID>
57399461

> <PUBCHEM_CONFORMER_RMSD>
1.2

> <PUBCHEM_CONFORMER_DIVERSEORDER>
1
135
56
27
44
48
52
126
46
79
169
125
136
63
73
132
57
160
43
9
111
89
45
99
62
3
167
116
115
72
35
78
64
94
13
159
40
67
104
156
124
28
77
141
130
60
82
131
163
155
162
71
100
70
106
122
87
17
50
23
108
91
139
81
85
47
80
120
92
144
34
76
11
10
145
61
51
65
149
121
148
58
42
143
90
166
161
75
123
54
133
95
18
38
16
33
39
119
98
113
101
150
37
49
86
157
97
88
84
134
24
55
109
127
164
14
59
102
165
30
140
128
12
107
22
74
36
69
153
32
117
8
158
137
25
147
5
21
152
112
41
66
93
138
103
96
26
151
19
29
129
105
83
170
114
4
68
142
15
6
154
110
146
168
53
118
7
2
31
20

> <PUBCHEM_MMFF94_PARTIAL_CHARGES>
42
1 -0.57
10 0.44
11 0.27
12 0.71
13 -0.24
14 -0.15
16 -0.15
17 -0.14
18 -0.15
19 -0.15
2 -0.36
20 0.05
21 -0.15
22 -0.15
23 -0.15
24 0.27
25 0.27
26 -0.05
27 0.08
28 -0.15
29 -0.15
3 -0.66
30 -0.3
31 0.14
32 0.28
4 0.03
41 0.27
42 0.15
43 0.15
44 0.15
45 0.15
46 0.15
47 0.15
5 -0.81
54 0.15
55 0.15
56 0.15
57 0.15
58 0.27
6 0.3
7 -0.71
8 0.3

> <PUBCHEM_EFFECTIVE_ROTOR_COUNT>
10

> <PUBCHEM_PHARMACOPHORE_FEATURES>
11
1 1 acceptor
1 2 acceptor
1 4 cation
1 4 donor
1 5 cation
1 6 donor
1 7 acceptor
5 4 13 14 15 16 rings
5 6 7 26 30 31 rings
6 14 15 18 19 20 21 rings
6 17 22 23 27 28 29 rings

> <PUBCHEM_HEAVY_ATOM_COUNT>
32

> <PUBCHEM_ATOM_DEF_STEREO_COUNT>
0

> <PUBCHEM_ATOM_UDEF_STEREO_COUNT>
0

> <PUBCHEM_BOND_DEF_STEREO_COUNT>
0

> <PUBCHEM_BOND_UDEF_STEREO_COUNT>
0

> <PUBCHEM_ISOTOPIC_ATOM_COUNT>
0

> <PUBCHEM_COMPONENT_COUNT>
1

> <PUBCHEM_CACTVS_TAUTO_COUNT>
23

> <PUBCHEM_CONFORMER_ID>
036BD8A500000001

> <PUBCHEM_MMFF94_ENERGY>
82.2427

> <PUBCHEM_FEATURE_SELFOVERLAP>
55.913

> <PUBCHEM_SHAPE_FINGERPRINT>
10319688 67 18341315756819927530
11135609 187 18413107252038104729
11135926 11 18335135359659183183
11719270 70 18261396615751201063
11796584 16 14418431991810441480
12236239 1 18131073689002693469
12596602 18 17703231702885175801
12925494 130 18055064617742112544
13692114 37 18343019982479027222
13782708 43 15864938537235788793
14394314 77 18272092635556062617
14787075 74 17988642973661357000
14910700 183 18260827081818630418
15183329 4 13190341240355885932
15721738 202 13973963199057421947
15781502 593 18409725192619615715
16728300 4 16662591187561872466
16994733 274 16558476296860283011
17138139 8 18272362114657454063
19319366 153 18341890749877782503
20511986 3 18128534865404655941
21304304 249 18335703793958845750
21521721 280 18413673521673866913
21859007 373 17749657503026012461
221357 26 9439404627532011678
22149856 69 16629978654684771737
22224240 67 18410290294267248791
22956985 138 17391347404194993890
23559900 14 18343015640815249289
23569917 315 18338243673734709967
27425 322 17822852125584286064
34797466 226 14261631742353644240
3633792 109 18410852128109792181
4258327 124 18115881861353845676
4340502 62 18411420583372153510
5085150 59 18187370952145917555
5104073 3 18191850414715882752
6004065 56 18411139164794734017

> <PUBCHEM_SHAPE_MULTIPOLES>
621.9
18.67
4.15
1.42
10.78
5.05
0.11
-11.81
2.91
-2.23
1.49
-0.34
0.15
-0.05

> <PUBCHEM_SHAPE_SELFOVERLAP>
1342.797

> <PUBCHEM_SHAPE_VOLUME>
346.3

> <PUBCHEM_COORDINATE_TYPE>
2
5
10

$$$$
54765203
  -OEChem-05102415083D

 43 46  0     0  0  0  0  0  0999 V2000
   -1.6198    0.4225   -1.9402 O   0  0  0  0  0  0  0  0  0  0  0  0
   -6.2961    2.3333   -0.0909 O   0  0  0  0  0  0  0  0  0  0  0  0
    1.0507    0.2299   -0.9717 N   0  0  0  0  0  0  0  0  0  0  0  0
   -2.2156   -1.5430   -0.8637 N   0  0  0  0  0  0  0  0  0  0  0  0
    3.3797    0.4827   -0.4107 N   0  0  0  0  0  0  0  0  0  0  0  0
    7.1838    2.0062   -0.1932 N   0  0  0  0  0  0  0  0  0  0  0  0
    7.8224    1.1047    0.5722 N   0  0  0  0  0  0  0  0  0  0  0  0
    1.9411   -1.3685    0.3086 C   0  0  0  0  0  0  0  0  0  0  0  0
    2.2067   -0.1764   -0.3589 C   0  0  0  0  0  0  0  0  0  0  0  0
    0.0516   -0.6720   -0.7128 C   0  0  0  0  0  0  0  0  0  0  0  0
    0.5736   -1.6734    0.0773 C   0  0  0  0  0  0  0  0  0  0  0  0
    3.0002   -1.9650    1.0116 C   0  0  0  0  0  0  0  0  0  0  0  0
    4.3630   -0.1366    0.2830 C   0  0  0  0  0  0  0  0  0  0  0  0
   -3.5926   -1.5636   -1.3021 C   0  0  0  0  0  0  0  0  0  0  0  0
   -1.2829   -0.5407   -1.2063 C   0  0  0  0  0  0  0  0  0  0  0  0
    4.2376   -1.3241    0.9915 C   0  0  0  0  0  0  0  0  0  0  0  0
   -4.4977   -0.8424   -0.3456 C   0  0  0  0  0  0  0  0  0  0  0  0
    5.6337    0.5338    0.2545 C   0  0  0  0  0  0  0  0  0  0  0  0
   -4.9832    0.4253   -0.6665 C   0  0  0  0  0  0  0  0  0  0  0  0
   -4.8525   -1.4396    0.8641 C   0  0  0  0  0  0  0  0  0  0  0  0
   -5.8236    1.0959    0.2223 C   0  0  0  0  0  0  0  0  0  0  0  0
    5.8706    1.7106   -0.4133 C   0  0  0  0  0  0  0  0  0  0  0  0
   -5.6927   -0.7689    1.7530 C   0  0  0  0  0  0  0  0  0  0  0  0
    6.8704    0.2077    0.8424 C   0  0  0  0  0  0  0  0  0  0  0  0
   -6.1785    0.4987    1.4319 C   0  0  0  0  0  0  0  0  0  0  0  0
   -7.1498    2.9628    0.8637 C   0  0  0  0  0  0  0  0  0  0  0  0
    0.0492   -2.5387    0.4591 H   0  0  0  0  0  0  0  0  0  0  0  0
    0.9532    1.0679   -1.5285 H   0  0  0  0  0  0  0  0  0  0  0  0
    2.8663   -2.8948    1.5550 H   0  0  0  0  0  0  0  0  0  0  0  0
   -3.8986   -2.6123   -1.3894 H   0  0  0  0  0  0  0  0  0  0  0  0
   -3.6552   -1.1270   -2.3055 H   0  0  0  0  0  0  0  0  0  0  0  0
    5.0637   -1.7758    1.5313 H   0  0  0  0  0  0  0  0  0  0  0  0
   -1.9247   -2.3065   -0.2623 H   0  0  0  0  0  0  0  0  0  0  0  0
   -4.7099    0.8984   -1.6065 H   0  0  0  0  0  0  0  0  0  0  0  0
   -4.4802   -2.4268    1.1249 H   0  0  0  0  0  0  0  0  0  0  0  0
    5.2486    2.3596   -1.0145 H   0  0  0  0  0  0  0  0  0  0  0  0
   -5.9682   -1.2347    2.6948 H   0  0  0  0  0  0  0  0  0  0  0  0
    7.1329   -0.6410    1.4580 H   0  0  0  0  0  0  0  0  0  0  0  0
   -6.8264    0.9629    2.1676 H   0  0  0  0  0  0  0  0  0  0  0  0
    7.7069    2.8033   -0.5334 H   0  0  0  0  0  0  0  0  0  0  0  0
   -8.0767    2.3976    1.0089 H   0  0  0  0  0  0  0  0  0  0  0  0
   -6.6272    3.1528    1.8073 H   0  0  0  0  0  0  0  0  0  0  0  0
   -7.4312    3.9377    0.4522 H   0  0  0  0  0  0  0  0  0  0  0  0
  1 15  2  0  0  0  0
  2 21  1  0  0  0  0
  2 26  1  0  0  0  0
  3  9  1  0  0  0  0
  3 10  1  0  0  0  0
  3 28  1  0  0  0  0
  4 14  1  0  0  0  0
  4 15  1  0  0  0  0
  4 33  1  0  0  0  0
  5  9  1  0  0  0  0
  5 13  2  0  0  0  0
  6  7  1  0  0  0  0
  6 22  1  0  0  0  0
  6 40  1  0  0  0  0
  7 24  2  0  0  0  0
  8  9  2  0  0  0  0
  8 11  1  0  0  0  0
  8 12  1  0  0  0  0
 10 11  2  0  0  0  0
 10 15  1  0  0  0  0
 11 27  1  0  0  0  0
 12 16  2  0  0  0  0
 12 29  1  0  0  0  0
 13 16  1  0  0  0  0
 13 18  1  0  0  0  0
 14 17  1  0  0  0  0
 14 30  1  0  0  0  0
 14 31  1  0  0  0  0
 16 32  1  0  0  0  0
 17 19  2  0  0  0  0
 17 20  1  0  0  0  0
 18 22  2  0  0  0  0
 18 24  1  0  0  0  0
 19 21  1  0  0  0  0
 19 34  1  0  0  0  0
 20 23  2  0  0  0  0
 20 35  1  0  0  0  0
 21 25  2  0  0  0  0
 22 36  1  0  0  0  0
 23 25  1  0  0  0  0
 23 37  1  0  0  0  0
 24 38  1  0  0  0  0
 25 39  1  0  0  0  0
 26 41  1  0  0  0  0
 26 42  1  0  0  0  0
 26 43  1  0  0  0  0
M  END
> <PUBCHEM_COMPOUND_CID>
54765203

> <PUBCHEM_CONFORMER_RMSD>
0.8

> <PUBCHEM_CONFORMER_DIVERSEORDER>
1
45
51
23
52
60
42
22
7
29
24
27
56
15
32
37
61
71
41
19
63
39
44
46
31
5
58
25
34
2
28
53
47
55
68
65
11
33
59
49
67
43
12
62
40
10
17
18
64
20
14
70
50
8
16
13
4
57
54
66
21
26
38
6
9
69
30
3
35
36
48

> <PUBCHEM_MMFF94_PARTIAL_CHARGES>
37
1 -0.57
10 -0.24
11 -0.15
12 -0.15
13 0.36
14 0.44
15 0.71
16 -0.15
17 -0.14
18 -0.05
19 -0.15
2 -0.36
20 -0.15
21 0.08
22 -0.3
23 -0.15
24 0.14
25 -0.15
26 0.28
27 0.15
28 0.27
29 0.15
3 0.03
32 0.15
33 0.37
34 0.15
35 0.15
36 0.15
37 0.15
38 0.15
39 0.15
4 -0.73
40 0.27
5 -0.57
6 0.3
7 -0.71
9 0.11

> <PUBCHEM_EFFECTIVE_ROTOR_COUNT>
6

> <PUBCHEM_PHARMACOPHORE_FEATURES>
12
1 1 acceptor
1 2 acceptor
1 3 cation
1 3 donor
1 4 donor
1 5 acceptor
1 6 donor
1 7 acceptor
5 3 8 9 10 11 rings
5 6 7 18 22 24 rings
6 17 19 20 21 23 25 rings
6 5 8 9 12 13 16 rings

> <PUBCHEM_HEAVY_ATOM_COUNT>
26

> <PUBCHEM_ATOM_DEF_STEREO_COUNT>
0

> <PUBCHEM_ATOM_UDEF_STEREO_COUNT>
0

> <PUBCHEM_BOND_DEF_STEREO_COUNT>
0

> <PUBCHEM_BOND_UDEF_STEREO_COUNT>
0

> <PUBCHEM_ISOTOPIC_ATOM_COUNT>
0

> <PUBCHEM_COMPONENT_COUNT>
1

> <PUBCHEM_CACTVS_TAUTO_COUNT>
46

> <PUBCHEM_CONFORMER_ID>
0343A69300000001

> <PUBCHEM_MMFF94_ENERGY>
57.3439

> <PUBCHEM_FEATURE_SELFOVERLAP>
61.01

> <PUBCHEM_SHAPE_FINGERPRINT>
10 15 18186801378772085141
10066227 112 17632576067465973584
10554248 39 16916786223934963150
10577160 183 14764348185356992508
106641 1 18409733993735721483
10670039 82 15482677862045974475
10693767 8 10951785049345438188
10906281 52 18114470049953542182
11135609 99 11097862895588190112
11315181 36 18334289895199116719
11456790 92 18335129926504799704
11963148 33 8502384312735513944
12166972 35 8070026679644167142
12236239 1 18342453759902333574
12539765 74 18341621464750877190
12596602 18 18334579019096025899
12895837 130 17917427559494258825
13668630 136 8286206054447717416
13782708 43 12613022908185674278
14251764 18 18412260666691807143
14347424 109 18190174590273264851
14765038 42 18186521007613039075
14849402 71 17970353826543070820
14931854 50 11383540141695855069
14951699 99 18341054021518079273
15082195 135 11742963985027909394
15183329 4 12679467473408973372
15461852 350 17846773036465454607
16110190 28 18259707796271979189
16994733 274 18129936892937771224
17780758 139 17603305960529066843
190975 80 16515689986785742402
19958102 18 11239706483840389085
20028762 73 8574437530317369688
21130935 74 18259420823516395978
21521239 73 10735869569330010916
21521721 280 18114178701089370720
21623969 137 17530682121686352754
21781055 127 18408884058774038264
2215653 11 12463576201312276494
22393880 68 11527664129958941479
2260408 40 17967820409712350534
23081809 10 18272356586359349630
23522609 53 18041575740198539212
23559900 14 10879983683944157006
23576562 1 14476378500455879256
23729398 52 18041559141184206866
24771293 8 18265043829793065844
312425 54 17386010538077512267
3383291 50 12901552342673752881
3663271 9 18187082854007493115
3711267 37 18340496664008482728
4015057 19 10879702238731667095
4093350 32 18272933804906375354
4340502 62 16587734344578652178
439807 62 8790591616749432097
474113 269 14404640762419781724
4938544 92 18413670227935318607
5104073 3 17314496059628264856
531348 171 10735891560216687363
54039377 194 8430306953547648641
5718773 13 10737291246692133801
5758199 1 18260265287464443730
59755656 215 13973975302812883638
6328613 192 18272369771676423897
7226269 152 17918277549962736027
7495541 125 14129061430305590894
9689198 14 18342464755060464980
9953998 17 17530684308135721673
999808 66 13262397761094861441

> <PUBCHEM_SHAPE_MULTIPOLES>
498.42
22.72
2.26
1.36
6.21
1.05
-0.02
15.79
7.8
-1.96
0.32
-1.48
-0.24
-1.25

> <PUBCHEM_SHAPE_SELFOVERLAP>
1106.396

> <PUBCHEM_SHAPE_VOLUME>
267.4

> <PUBCHEM_COORDINATE_TYPE>
2
5
10

$$$$
57397800
  -OEChem-05102415083D

 53 57  0     0  0  0  0  0  0999 V2000
   -1.8736   -0.4841    2.0510 O   0  0  0  0  0  0  0  0  0  0  0  0
   -5.2002    2.5058   -0.2157 O   0  0  0  0  0  0  0  0  0  0  0  0
    0.7521   -0.2930    0.7983 N   0  0  0  0  0  0  0  0  0  0  0  0
    3.0699    0.0793    0.2580 N   0  0  0  0  0  0  0  0  0  0  0  0
   -2.4411   -2.0767    0.4639 N   0  0  0  0  0  0  0  0  0  0  0  0
    6.7098    1.9192   -0.1928 N   0  0  0  0  0  0  0  0  0  0  0  0
    7.4724    0.9460   -0.7197 N   0  0  0  0  0  0  0  0  0  0  0  0
   -0.3149    1.8350    0.3028 C   0  0  0  0  0  0  0  0  0  0  0  0
    0.4322    2.6445   -0.7161 C   0  0  0  0  0  0  0  0  0  0  0  0
   -0.2999    3.3324    0.3987 C   0  0  0  0  0  0  0  0  0  0  0  0
    0.4540    1.0300    1.3043 C   0  0  0  0  0  0  0  0  0  0  0  0
    1.9718   -0.6971    0.3227 C   0  0  0  0  0  0  0  0  0  0  0  0
   -0.1386   -1.3320    0.7209 C   0  0  0  0  0  0  0  0  0  0  0  0
    1.8588   -2.0277   -0.0694 C   0  0  0  0  0  0  0  0  0  0  0  0
    0.5181   -2.4195    0.1866 C   0  0  0  0  0  0  0  0  0  0  0  0
   -1.5068   -1.2607    1.1350 C   0  0  0  0  0  0  0  0  0  0  0  0
    3.0056   -2.6467   -0.5924 C   0  0  0  0  0  0  0  0  0  0  0  0
    4.1431   -0.5677   -0.2530 C   0  0  0  0  0  0  0  0  0  0  0  0
    4.1713   -1.8881   -0.6816 C   0  0  0  0  0  0  0  0  0  0  0  0
    5.3382    0.2257   -0.3407 C   0  0  0  0  0  0  0  0  0  0  0  0
   -3.8575   -2.1014    0.7500 C   0  0  0  0  0  0  0  0  0  0  0  0
   -4.6152   -1.1029   -0.0764 C   0  0  0  0  0  0  0  0  0  0  0  0
    5.4231    1.5391    0.0528 C   0  0  0  0  0  0  0  0  0  0  0  0
    6.6291   -0.0860   -0.8076 C   0  0  0  0  0  0  0  0  0  0  0  0
   -4.5546    0.2541    0.2408 C   0  0  0  0  0  0  0  0  0  0  0  0
   -5.3804   -1.5321   -1.1609 C   0  0  0  0  0  0  0  0  0  0  0  0
   -5.2589    1.1820   -0.5265 C   0  0  0  0  0  0  0  0  0  0  0  0
   -6.0850   -0.6043   -1.9280 C   0  0  0  0  0  0  0  0  0  0  0  0
   -6.0240    0.7528   -1.6109 C   0  0  0  0  0  0  0  0  0  0  0  0
   -4.3988    2.8744    0.9059 C   0  0  0  0  0  0  0  0  0  0  0  0
   -1.2486    1.3769    0.0016 H   0  0  0  0  0  0  0  0  0  0  0  0
    0.0120    2.7098   -1.7123 H   0  0  0  0  0  0  0  0  0  0  0  0
    1.5148    2.6540   -0.6871 H   0  0  0  0  0  0  0  0  0  0  0  0
    0.2910    3.7974    1.1782 H   0  0  0  0  0  0  0  0  0  0  0  0
   -1.2076    3.8668    0.1474 H   0  0  0  0  0  0  0  0  0  0  0  0
   -0.0817    0.9428    2.2527 H   0  0  0  0  0  0  0  0  0  0  0  0
    1.4037    1.5187    1.5545 H   0  0  0  0  0  0  0  0  0  0  0  0
    0.0914   -3.3965    0.0023 H   0  0  0  0  0  0  0  0  0  0  0  0
    2.9914   -3.6817   -0.9183 H   0  0  0  0  0  0  0  0  0  0  0  0
    5.0641   -2.3557   -1.0842 H   0  0  0  0  0  0  0  0  0  0  0  0
   -2.1163   -2.6668   -0.2963 H   0  0  0  0  0  0  0  0  0  0  0  0
   -4.0194   -1.9027    1.8159 H   0  0  0  0  0  0  0  0  0  0  0  0
   -4.2092   -3.1209    0.5564 H   0  0  0  0  0  0  0  0  0  0  0  0
    4.7099    2.2331    0.4762 H   0  0  0  0  0  0  0  0  0  0  0  0
    7.0051   -1.0158   -1.2105 H   0  0  0  0  0  0  0  0  0  0  0  0
   -3.9640    0.5376    1.1029 H   0  0  0  0  0  0  0  0  0  0  0  0
   -5.4356   -2.5859   -1.4205 H   0  0  0  0  0  0  0  0  0  0  0  0
    7.1333    2.8235   -0.0259 H   0  0  0  0  0  0  0  0  0  0  0  0
   -6.6805   -0.9383   -2.7726 H   0  0  0  0  0  0  0  0  0  0  0  0
   -6.5749    1.4708   -2.2123 H   0  0  0  0  0  0  0  0  0  0  0  0
   -4.4537    3.9640    0.9982 H   0  0  0  0  0  0  0  0  0  0  0  0
   -3.3462    2.6203    0.7506 H   0  0  0  0  0  0  0  0  0  0  0  0
   -4.7940    2.4543    1.8370 H   0  0  0  0  0  0  0  0  0  0  0  0
  1 16  2  0  0  0  0
  2 27  1  0  0  0  0
  2 30  1  0  0  0  0
  3 11  1  0  0  0  0
  3 12  1  0  0  0  0
  3 13  1  0  0  0  0
  4 12  1  0  0  0  0
  4 18  2  0  0  0  0
  5 16  1  0  0  0  0
  5 21  1  0  0  0  0
  5 41  1  0  0  0  0
  6  7  1  0  0  0  0
  6 23  1  0  0  0  0
  6 48  1  0  0  0  0
  7 24  2  0  0  0  0
  8  9  1  0  0  0  0
  8 10  1  0  0  0  0
  8 11  1  0  0  0  0
  8 31  1  0  0  0  0
  9 10  1  0  0  0  0
  9 32  1  0  0  0  0
  9 33  1  0  0  0  0
 10 34  1  0  0  0  0
 10 35  1  0  0  0  0
 11 36  1  0  0  0  0
 11 37  1  0  0  0  0
 12 14  2  0  0  0  0
 13 15  2  0  0  0  0
 13 16  1  0  0  0  0
 14 15  1  0  0  0  0
 14 17  1  0  0  0  0
 15 38  1  0  0  0  0
 17 19  2  0  0  0  0
 17 39  1  0  0  0  0
 18 19  1  0  0  0  0
 18 20  1  0  0  0  0
 19 40  1  0  0  0  0
 20 23  2  0  0  0  0
 20 24  1  0  0  0  0
 21 22  1  0  0  0  0
 21 42  1  0  0  0  0
 21 43  1  0  0  0  0
 22 25  2  0  0  0  0
 22 26  1  0  0  0  0
 23 44  1  0  0  0  0
 24 45  1  0  0  0  0
 25 27  1  0  0  0  0
 25 46  1  0  0  0  0
 26 28  2  0  0  0  0
 26 47  1  0  0  0  0
 27 29  2  0  0  0  0
 28 29  1  0  0  0  0
 28 49  1  0  0  0  0
 29 50  1  0  0  0  0
 30 51  1  0  0  0  0
 30 52  1  0  0  0  0
 30 53  1  0  0  0  0
M  END
> <PUBCHEM_COMPOUND_CID>
57397800

> <PUBCHEM_CONFORMER_RMSD>
1

> <PUBCHEM_CONFORMER_DIVERSEORDER>
1
38
41
39
12
26
47
40
24
56
19
59
55
28
8
54
44
60
42
2
37
48
63
31
33
23
29
27
43
53
46
57
9
18
51
62
10
52
49
30
61
36
45
5
6
14
34
25
13
17
35
58
22
11
50
15
3
21
7
32
4
16
20

> <PUBCHEM_MMFF94_PARTIAL_CHARGES>
45
1 -0.57
10 -0.2
11 0.35
12 0.11
13 -0.24
15 -0.15
16 0.71
17 -0.15
18 0.36
19 -0.15
2 -0.36
20 -0.05
21 0.44
22 -0.14
23 -0.3
24 0.14
25 -0.15
26 -0.15
27 0.08
28 -0.15
29 -0.15
3 0.05
30 0.28
31 0.1
32 0.1
33 0.1
34 0.1
35 0.1
38 0.15
39 0.15
4 -0.57
40 0.15
41 0.37
44 0.15
45 0.15
46 0.15
47 0.15
48 0.27
49 0.15
5 -0.73
50 0.15
6 0.3
7 -0.71
8 -0.19
9 -0.2

> <PUBCHEM_EFFECTIVE_ROTOR_COUNT>
8.6

> <PUBCHEM_PHARMACOPHORE_FEATURES>
11
1 1 acceptor
1 2 acceptor
1 3 cation
1 4 acceptor
1 5 donor
1 6 donor
1 7 acceptor
5 3 12 13 14 15 rings
5 6 7 20 23 24 rings
6 22 25 26 27 28 29 rings
6 4 12 14 17 18 19 rings

> <PUBCHEM_HEAVY_ATOM_COUNT>
30

> <PUBCHEM_ATOM_DEF_STEREO_COUNT>
0

> <PUBCHEM_ATOM_UDEF_STEREO_COUNT>
0

> <PUBCHEM_BOND_DEF_STEREO_COUNT>
0

> <PUBCHEM_BOND_UDEF_STEREO_COUNT>
0

> <PUBCHEM_ISOTOPIC_ATOM_COUNT>
0

> <PUBCHEM_COMPONENT_COUNT>
1

> <PUBCHEM_CACTVS_TAUTO_COUNT>
13

> <PUBCHEM_CONFORMER_ID>
036BD22800000001

> <PUBCHEM_MMFF94_ENERGY>
71.7604

> <PUBCHEM_FEATURE_SELFOVERLAP>
55.935

> <PUBCHEM_SHAPE_FINGERPRINT>
10675989 125 18044091254898713227
10906281 52 18261125062264618546
12124843 1 18267564846667223837
13690498 29 17844519110395960639
13782708 43 12751245779120383782
14394314 77 18339931394714803505
14765038 42 18198919002629551777
14931854 50 18337939114151698253
15082195 135 18410017654492226076
15183329 4 18413105052634774507
17780758 139 7853577916048686255
18608769 82 18187369870288723875
18769570 83 17095519617009996092
20715895 44 18040998462254855686
21424621 283 17313100843359504171
21814621 53 15430312469331653177
221357 26 18341322345790115807
23559900 14 18341326807428050897
23569914 152 17194616152164713998
4353968 344 18199755757174789438
5283173 99 18334012770048492952
636775 8 9294748510581263808
999808 66 10591769783307357228

> <PUBCHEM_SHAPE_MULTIPOLES>
580.74
17.34
3.42
1.29
8.34
1.44
-0.04
4.33
-8.2
-1.01
0.21
-1.6
-0.11
-0.11

> <PUBCHEM_SHAPE_SELFOVERLAP>
1280.563

> <PUBCHEM_SHAPE_VOLUME>
314.2

> <PUBCHEM_COORDINATE_TYPE>
2
5
10

$$$$
52934380
  -OEChem-05102415083D

 60 64  0     0  0  0  0  0  0999 V2000
    1.3408   -1.3351    1.9625 O   0  0  0  0  0  0  0  0  0  0  0  0
    3.2762    2.9905    0.4727 O   0  0  0  0  0  0  0  0  0  0  0  0
    5.9707    1.0167    0.5581 O   0  0  0  0  0  0  0  0  0  0  0  0
   -1.2684   -0.7143    0.7983 N   0  0  0  0  0  0  0  0  0  0  0  0
   -3.5470   -0.0593    0.3715 N   0  0  0  0  0  0  0  0  0  0  0  0
    1.7275   -2.7395    0.1584 N   0  0  0  0  0  0  0  0  0  0  0  0
   -6.9958    2.1605    0.2477 N   0  0  0  0  0  0  0  0  0  0  0  0
   -7.8595    1.3351   -0.3683 N   0  0  0  0  0  0  0  0  0  0  0  0
   -2.5299   -0.9396    0.3134 C   0  0  0  0  0  0  0  0  0  0  0  0
   -0.4857   -1.8168    0.5732 C   0  0  0  0  0  0  0  0  0  0  0  0
   -0.8331    0.5034    1.4484 C   0  0  0  0  0  0  0  0  0  0  0  0
   -2.5554   -2.2185   -0.2354 C   0  0  0  0  0  0  0  0  0  0  0  0
   -1.2559   -2.7651   -0.0648 C   0  0  0  0  0  0  0  0  0  0  0  0
   -0.0183    1.4017    0.5511 C   0  0  0  0  0  0  0  0  0  0  0  0
   -3.7661   -2.6572   -0.7952 C   0  0  0  0  0  0  0  0  0  0  0  0
    0.8908   -1.9255    0.9499 C   0  0  0  0  0  0  0  0  0  0  0  0
   -4.6870   -0.5342   -0.1818 C   0  0  0  0  0  0  0  0  0  0  0  0
   -4.8524   -1.7846   -0.7621 C   0  0  0  0  0  0  0  0  0  0  0  0
    1.2681    1.7850    0.9306 C   0  0  0  0  0  0  0  0  0  0  0  0
   -0.5515    1.8496   -0.6576 C   0  0  0  0  0  0  0  0  0  0  0  0
    3.1303   -2.9677    0.4211 C   0  0  0  0  0  0  0  0  0  0  0  0
   -5.7997    0.3745   -0.1402 C   0  0  0  0  0  0  0  0  0  0  0  0
    2.0215    2.6160    0.1014 C   0  0  0  0  0  0  0  0  0  0  0  0
    4.0021   -1.9554   -0.2639 C   0  0  0  0  0  0  0  0  0  0  0  0
    0.2017    2.6808   -1.4867 C   0  0  0  0  0  0  0  0  0  0  0  0
    1.4883    3.0638   -1.1073 C   0  0  0  0  0  0  0  0  0  0  0  0
   -5.7485    1.6325    0.4086 C   0  0  0  0  0  0  0  0  0  0  0  0
   -7.1230    0.2458   -0.6029 C   0  0  0  0  0  0  0  0  0  0  0  0
    4.5893   -0.9276    0.4740 C   0  0  0  0  0  0  0  0  0  0  0  0
    4.2244   -2.0422   -1.6383 C   0  0  0  0  0  0  0  0  0  0  0  0
    5.3989    0.0135   -0.1623 C   0  0  0  0  0  0  0  0  0  0  0  0
    5.0338   -1.1011   -2.2747 C   0  0  0  0  0  0  0  0  0  0  0  0
    5.6212   -0.0734   -1.5367 C   0  0  0  0  0  0  0  0  0  0  0  0
    3.9907    3.8423   -0.4216 C   0  0  0  0  0  0  0  0  0  0  0  0
    5.7008    1.0451    1.9590 C   0  0  0  0  0  0  0  0  0  0  0  0
   -1.7221    1.0592    1.7728 H   0  0  0  0  0  0  0  0  0  0  0  0
   -0.3139    0.2443    2.3756 H   0  0  0  0  0  0  0  0  0  0  0  0
   -0.9305   -3.7492   -0.3749 H   0  0  0  0  0  0  0  0  0  0  0  0
   -3.8596   -3.6422   -1.2408 H   0  0  0  0  0  0  0  0  0  0  0  0
   -5.7935   -2.1127   -1.1918 H   0  0  0  0  0  0  0  0  0  0  0  0
    1.3361   -3.1847   -0.6665 H   0  0  0  0  0  0  0  0  0  0  0  0
    1.6908    1.4449    1.8725 H   0  0  0  0  0  0  0  0  0  0  0  0
   -1.5545    1.5727   -0.9683 H   0  0  0  0  0  0  0  0  0  0  0  0
    3.3751   -3.9747    0.0646 H   0  0  0  0  0  0  0  0  0  0  0  0
    3.2967   -2.9631    1.5043 H   0  0  0  0  0  0  0  0  0  0  0  0
   -0.2152    3.0310   -2.4266 H   0  0  0  0  0  0  0  0  0  0  0  0
    2.0181    3.7106   -1.7983 H   0  0  0  0  0  0  0  0  0  0  0  0
   -4.9635    2.1992    0.8906 H   0  0  0  0  0  0  0  0  0  0  0  0
   -7.5954   -0.5884   -1.1020 H   0  0  0  0  0  0  0  0  0  0  0  0
    4.3821   -0.9055    1.5387 H   0  0  0  0  0  0  0  0  0  0  0  0
    3.7719   -2.8383   -2.2236 H   0  0  0  0  0  0  0  0  0  0  0  0
   -7.3257    3.0740    0.5331 H   0  0  0  0  0  0  0  0  0  0  0  0
    5.2064   -1.1682   -3.3448 H   0  0  0  0  0  0  0  0  0  0  0  0
    6.2499    0.6574   -2.0379 H   0  0  0  0  0  0  0  0  0  0  0  0
    4.9677    4.0395    0.0318 H   0  0  0  0  0  0  0  0  0  0  0  0
    3.4920    4.8101   -0.5408 H   0  0  0  0  0  0  0  0  0  0  0  0
    4.1780    3.3499   -1.3819 H   0  0  0  0  0  0  0  0  0  0  0  0
    6.2239    1.9145    2.3706 H   0  0  0  0  0  0  0  0  0  0  0  0
    6.1051    0.1605    2.4628 H   0  0  0  0  0  0  0  0  0  0  0  0
    4.6350    1.1875    2.1657 H   0  0  0  0  0  0  0  0  0  0  0  0
  1 16  2  0  0  0  0
  2 23  1  0  0  0  0
  2 34  1  0  0  0  0
  3 31  1  0  0  0  0
  3 35  1  0  0  0  0
  4  9  1  0  0  0  0
  4 10  1  0  0  0  0
  4 11  1  0  0  0  0
  5  9  1  0  0  0  0
  5 17  2  0  0  0  0
  6 16  1  0  0  0  0
  6 21  1  0  0  0  0
  6 41  1  0  0  0  0
  7  8  1  0  0  0  0
  7 27  1  0  0  0  0
  7 52  1  0  0  0  0
  8 28  2  0  0  0  0
  9 12  2  0  0  0  0
 10 13  2  0  0  0  0
 10 16  1  0  0  0  0
 11 14  1  0  0  0  0
 11 36  1  0  0  0  0
 11 37  1  0  0  0  0
 12 13  1  0  0  0  0
 12 15  1  0  0  0  0
 13 38  1  0  0  0  0
 14 19  2  0  0  0  0
 14 20  1  0  0  0  0
 15 18  2  0  0  0  0
 15 39  1  0  0  0  0
 17 18  1  0  0  0  0
 17 22  1  0  0  0  0
 18 40  1  0  0  0  0
 19 23  1  0  0  0  0
 19 42  1  0  0  0  0
 20 25  2  0  0  0  0
 20 43  1  0  0  0  0
 21 24  1  0  0  0  0
 21 44  1  0  0  0  0
 21 45  1  0  0  0  0
 22 27  2  0  0  0  0
 22 28  1  0  0  0  0
 23 26  2  0  0  0  0
 24 29  2  0  0  0  0
 24 30  1  0  0  0  0
 25 26  1  0  0  0  0
 25 46  1  0  0  0  0
 26 47  1  0  0  0  0
 27 48  1  0  0  0  0
 28 49  1  0  0  0  0
 29 31  1  0  0  0  0
 29 50  1  0  0  0  0
 30 32  2  0  0  0  0
 30 51  1  0  0  0  0
 31 33  2  0  0  0  0
 32 33  1  0  0  0  0
 32 53  1  0  0  0  0
 33 54  1  0  0  0  0
 34 55  1  0  0  0  0
 34 56  1  0  0  0  0
 34 57  1  0  0  0  0
 35 58  1  0  0  0  0
 35 59  1  0  0  0  0
 35 60  1  0  0  0  0
M  END
> <PUBCHEM_COMPOUND_CID>
52934380

> <PUBCHEM_CONFORMER_RMSD>
1.2

> <PUBCHEM_CONFORMER_DIVERSEORDER>
1
53
108
85
102
112
57
99
115
126
140
121
134
74
125
103
43
105
39
86
120
45
137
64
77
123
49
20
63
111
12
46
25
75
61
119
139
144
91
132
68
83
84
72
129
130
110
36
135
127
17
15
113
114
82
31
136
131
56
54
94
101
81
89
40
16
98
104
90
95
50
79
8
65
107
138
18
96
141
60
92
62
100
27
97
116
44
59
122
88
106
48
117
78
55
142
109
28
29
118
58
93
133
11
128
7
37
124
143
35
66
76
70
5
87
71
69
42
24
26
9
23
33
32
51
19
47
80
38
67
34
21
41
73
22
14
52
13
3
30
6
10
4
2

> <PUBCHEM_MMFF94_PARTIAL_CHARGES>
49
1 -0.57
10 -0.24
11 0.4
13 -0.15
14 -0.14
15 -0.15
16 0.71
17 0.36
18 -0.15
19 -0.15
2 -0.36
20 -0.15
21 0.44
22 -0.05
23 0.08
24 -0.14
25 -0.15
26 -0.15
27 -0.3
28 0.14
29 -0.15
3 -0.36
30 -0.15
31 0.08
32 -0.15
33 -0.15
34 0.28
35 0.28
38 0.15
39 0.15
4 0.05
40 0.15
41 0.37
42 0.15
43 0.15
46 0.15
47 0.15
48 0.15
49 0.15
5 -0.57
50 0.15
51 0.15
52 0.27
53 0.15
54 0.15
6 -0.73
7 0.3
8 -0.71
9 0.11

> <PUBCHEM_EFFECTIVE_ROTOR_COUNT>
9

> <PUBCHEM_PHARMACOPHORE_FEATURES>
13
1 1 acceptor
1 2 acceptor
1 3 acceptor
1 4 cation
1 5 acceptor
1 6 donor
1 7 donor
1 8 acceptor
5 4 9 10 12 13 rings
5 7 8 22 27 28 rings
6 14 19 20 23 25 26 rings
6 24 29 30 31 32 33 rings
6 5 9 12 15 17 18 rings

> <PUBCHEM_HEAVY_ATOM_COUNT>
35

> <PUBCHEM_ATOM_DEF_STEREO_COUNT>
0

> <PUBCHEM_ATOM_UDEF_STEREO_COUNT>
0

> <PUBCHEM_BOND_DEF_STEREO_COUNT>
0

> <PUBCHEM_BOND_UDEF_STEREO_COUNT>
0

> <PUBCHEM_ISOTOPIC_ATOM_COUNT>
0

> <PUBCHEM_COMPONENT_COUNT>
1

> <PUBCHEM_CACTVS_TAUTO_COUNT>
13

> <PUBCHEM_CONFORMER_ID>
0327B6EC00000001

> <PUBCHEM_MMFF94_ENERGY>
93.6147

> <PUBCHEM_FEATURE_SELFOVERLAP>
66.087

> <PUBCHEM_SHAPE_FINGERPRINT>
10675989 125 18335140933936422084
10816530 90 18333729100348801269
11135609 187 18265338481212475664
11621639 179 18042677309606669653
12128747 34 17704069568941922144
1361 2 18272654536951803662
13617811 41 18113903740692513845
13627175 23 18201731609650543873
14020679 6 17821454569001084147
14068700 675 18130505211120368313
14117953 113 18411984650924283678
14400156 260 18044938970227117593
14725015 67 18335976481611459664
14790565 3 18124318199251039633
14931854 50 18266765574675221484
15001296 14 18408318912974016025
15183329 4 18410015433645805501
15439362 3 18336265746741427865
15475509 8 18270410364957552119
16067689 134 17981622472018528473
16090146 7 17703524229087857835
19301679 30 17757561029178119291
19319366 153 17458621164531251403
20511986 3 17846211219634377540
20642791 35 18409449184772164491
20715895 44 18411134771016569890
21298829 104 18411979195646144824
21304303 64 17676497150369683599
21781055 127 16845024408159294099
23559900 14 18131627902686530291
23576562 1 18409168840411135655
24771293 8 18340475777228302192
24771750 20 17971494019915704837
3459 83 18412546518139991621
350125 39 18337389336757679493
3633792 109 18272088267294650193
404807 14 17482290222377068102
4093350 32 17561362868145551108
5081480 168 18336256869576342661
5265222 85 17545049659444725236
6328613 192 18343018861866089219

> <PUBCHEM_SHAPE_MULTIPOLES>
677.77
16.76
4.25
1.47
18.19
1.38
0.14
3.95
2.87
-2.42
0.62
-2.12
-0.06
0.32

> <PUBCHEM_SHAPE_SELFOVERLAP>
1500.626

> <PUBCHEM_SHAPE_VOLUME>
364.4

> <PUBCHEM_COORDINATE_TYPE>
2
5
10

$$$$
57394242
  -OEChem-05102415083D

 57 60  0     0  0  0  0  0  0999 V2000
   -1.6562   -0.6772    2.0679 O   0  0  0  0  0  0  0  0  0  0  0  0
   -5.1388    2.1250   -0.2042 O   0  0  0  0  0  0  0  0  0  0  0  0
    0.9406   -0.4007    0.7717 N   0  0  0  0  0  0  0  0  0  0  0  0
   -0.5691    3.0147    0.7501 N   0  0  0  0  0  0  0  0  0  0  0  0
    3.2326    0.0580    0.1889 N   0  0  0  0  0  0  0  0  0  0  0  0
   -2.1786   -2.3232    0.5204 N   0  0  0  0  0  0  0  0  0  0  0  0
    6.7843    2.0401   -0.3526 N   0  0  0  0  0  0  0  0  0  0  0  0
    7.5798    1.0896   -0.8725 N   0  0  0  0  0  0  0  0  0  0  0  0
    0.5942    0.9183    1.2568 C   0  0  0  0  0  0  0  0  0  0  0  0
    2.1693   -0.7624    0.2853 C   0  0  0  0  0  0  0  0  0  0  0  0
    0.0936   -1.4774    0.7278 C   0  0  0  0  0  0  0  0  0  0  0  0
    2.1070   -2.1041   -0.0796 C   0  0  0  0  0  0  0  0  0  0  0  0
   -0.2268    1.6964    0.2291 C   0  0  0  0  0  0  0  0  0  0  0  0
    0.7880   -2.5467    0.2043 C   0  0  0  0  0  0  0  0  0  0  0  0
    3.2713   -2.6845   -0.6082 C   0  0  0  0  0  0  0  0  0  0  0  0
   -1.2702   -1.4556    1.1614 C   0  0  0  0  0  0  0  0  0  0  0  0
    4.3246   -0.5533   -0.3261 C   0  0  0  0  0  0  0  0  0  0  0  0
    4.4024   -1.8794   -0.7297 C   0  0  0  0  0  0  0  0  0  0  0  0
   -1.6904    2.9232    1.6869 C   0  0  0  0  0  0  0  0  0  0  0  0
   -0.8944    3.9322   -0.3431 C   0  0  0  0  0  0  0  0  0  0  0  0
   -3.5885   -2.4018    0.8287 C   0  0  0  0  0  0  0  0  0  0  0  0
    5.4836    0.2879   -0.4471 C   0  0  0  0  0  0  0  0  0  0  0  0
   -4.3997   -1.4524   -0.0050 C   0  0  0  0  0  0  0  0  0  0  0  0
    5.5185    1.6110   -0.0801 C   0  0  0  0  0  0  0  0  0  0  0  0
    6.7797    0.0215   -0.9278 C   0  0  0  0  0  0  0  0  0  0  0  0
   -4.3919   -0.0881    0.2854 C   0  0  0  0  0  0  0  0  0  0  0  0
   -5.1618   -1.9348   -1.0692 C   0  0  0  0  0  0  0  0  0  0  0  0
   -5.1460    0.7941   -0.4886 C   0  0  0  0  0  0  0  0  0  0  0  0
   -5.9160   -1.0526   -1.8431 C   0  0  0  0  0  0  0  0  0  0  0  0
   -5.9080    0.3117   -1.5529 C   0  0  0  0  0  0  0  0  0  0  0  0
   -5.9332    2.9705   -1.0348 C   0  0  0  0  0  0  0  0  0  0  0  0
    1.5276    1.4569    1.4644 H   0  0  0  0  0  0  0  0  0  0  0  0
    0.1072    0.8059    2.2279 H   0  0  0  0  0  0  0  0  0  0  0  0
    0.3966    1.7988   -0.6702 H   0  0  0  0  0  0  0  0  0  0  0  0
   -1.1206    1.1444   -0.0883 H   0  0  0  0  0  0  0  0  0  0  0  0
    0.4003   -3.5442    0.0453 H   0  0  0  0  0  0  0  0  0  0  0  0
    3.2963   -3.7254   -0.9140 H   0  0  0  0  0  0  0  0  0  0  0  0
    5.3083   -2.3169   -1.1370 H   0  0  0  0  0  0  0  0  0  0  0  0
   -1.8402   -2.9139   -0.2333 H   0  0  0  0  0  0  0  0  0  0  0  0
   -1.9339    3.9159    2.0831 H   0  0  0  0  0  0  0  0  0  0  0  0
   -2.5923    2.5194    1.2148 H   0  0  0  0  0  0  0  0  0  0  0  0
   -1.4473    2.3049    2.5559 H   0  0  0  0  0  0  0  0  0  0  0  0
   -1.7493    3.5831   -0.9339 H   0  0  0  0  0  0  0  0  0  0  0  0
   -1.1287    4.9289    0.0473 H   0  0  0  0  0  0  0  0  0  0  0  0
   -0.0364    4.0548   -1.0135 H   0  0  0  0  0  0  0  0  0  0  0  0
   -3.7430   -2.1878    1.8927 H   0  0  0  0  0  0  0  0  0  0  0  0
   -3.8997   -3.4388    0.6606 H   0  0  0  0  0  0  0  0  0  0  0  0
    4.7831    2.2827    0.3412 H   0  0  0  0  0  0  0  0  0  0  0  0
    7.1888   -0.8994   -1.3186 H   0  0  0  0  0  0  0  0  0  0  0  0
   -3.8167    0.2991    1.1204 H   0  0  0  0  0  0  0  0  0  0  0  0
   -5.1760   -2.9949   -1.3077 H   0  0  0  0  0  0  0  0  0  0  0  0
    7.1716    2.9644   -0.2095 H   0  0  0  0  0  0  0  0  0  0  0  0
   -6.5088   -1.4291   -2.6718 H   0  0  0  0  0  0  0  0  0  0  0  0
   -6.5161    0.9406   -2.1941 H   0  0  0  0  0  0  0  0  0  0  0  0
   -5.8092    3.9941   -0.6663 H   0  0  0  0  0  0  0  0  0  0  0  0
   -6.9983    2.7283   -0.9541 H   0  0  0  0  0  0  0  0  0  0  0  0
   -5.5822    2.9598   -2.0723 H   0  0  0  0  0  0  0  0  0  0  0  0
  1 16  2  0  0  0  0
  2 28  1  0  0  0  0
  2 31  1  0  0  0  0
  3  9  1  0  0  0  0
  3 10  1  0  0  0  0
  3 11  1  0  0  0  0
  4 13  1  0  0  0  0
  4 19  1  0  0  0  0
  4 20  1  0  0  0  0
  5 10  1  0  0  0  0
  5 17  2  0  0  0  0
  6 16  1  0  0  0  0
  6 21  1  0  0  0  0
  6 39  1  0  0  0  0
  7  8  1  0  0  0  0
  7 24  1  0  0  0  0
  7 52  1  0  0  0  0
  8 25  2  0  0  0  0
  9 13  1  0  0  0  0
  9 32  1  0  0  0  0
  9 33  1  0  0  0  0
 10 12  2  0  0  0  0
 11 14  2  0  0  0  0
 11 16  1  0  0  0  0
 12 14  1  0  0  0  0
 12 15  1  0  0  0  0
 13 34  1  0  0  0  0
 13 35  1  0  0  0  0
 14 36  1  0  0  0  0
 15 18  2  0  0  0  0
 15 37  1  0  0  0  0
 17 18  1  0  0  0  0
 17 22  1  0  0  0  0
 18 38  1  0  0  0  0
 19 40  1  0  0  0  0
 19 41  1  0  0  0  0
 19 42  1  0  0  0  0
 20 43  1  0  0  0  0
 20 44  1  0  0  0  0
 20 45  1  0  0  0  0
 21 23  1  0  0  0  0
 21 46  1  0  0  0  0
 21 47  1  0  0  0  0
 22 24  2  0  0  0  0
 22 25  1  0  0  0  0
 23 26  2  0  0  0  0
 23 27  1  0  0  0  0
 24 48  1  0  0  0  0
 25 49  1  0  0  0  0
 26 28  1  0  0  0  0
 26 50  1  0  0  0  0
 27 29  2  0  0  0  0
 27 51  1  0  0  0  0
 28 30  2  0  0  0  0
 29 30  1  0  0  0  0
 29 53  1  0  0  0  0
 30 54  1  0  0  0  0
 31 55  1  0  0  0  0
 31 56  1  0  0  0  0
 31 57  1  0  0  0  0
M  END
> <PUBCHEM_COMPOUND_CID>
57394242

> <PUBCHEM_CONFORMER_RMSD>
1

> <PUBCHEM_CONFORMER_DIVERSEORDER>
1
15
86
59
87
85
22
26
89
61
80
77
83
53
9
42
51
71
73
62
17
92
14
91
55
41
52
29
78
32
76
58
21
27
70
101
81
100
16
54
90
102
39
82
95
12
47
20
74
48
99
25
97
65
50
79
11
33
103
36
60
98
18
10
64
24
84
45
8
88
93
44
28
57
30
66
23
19
40
49
94
38
56
75
5
68
96
46
31
72
43
63
37
69
35
3
34
67
7
4
13
6
2

> <PUBCHEM_MMFF94_PARTIAL_CHARGES>
41
1 -0.57
10 0.11
11 -0.24
13 0.27
14 -0.15
15 -0.15
16 0.71
17 0.36
18 -0.15
19 0.27
2 -0.36
20 0.27
21 0.44
22 -0.05
23 -0.14
24 -0.3
25 0.14
26 -0.15
27 -0.15
28 0.08
29 -0.15
3 0.05
30 -0.15
31 0.28
36 0.15
37 0.15
38 0.15
39 0.37
4 -0.81
48 0.15
49 0.15
5 -0.57
50 0.15
51 0.15
52 0.27
53 0.15
54 0.15
6 -0.73
7 0.3
8 -0.71
9 0.26

> <PUBCHEM_EFFECTIVE_ROTOR_COUNT>
9

> <PUBCHEM_PHARMACOPHORE_FEATURES>
12
1 1 acceptor
1 2 acceptor
1 3 cation
1 4 cation
1 5 acceptor
1 6 donor
1 7 donor
1 8 acceptor
5 3 10 11 12 14 rings
5 7 8 22 24 25 rings
6 23 26 27 28 29 30 rings
6 5 10 12 15 17 18 rings

> <PUBCHEM_HEAVY_ATOM_COUNT>
31

> <PUBCHEM_ATOM_DEF_STEREO_COUNT>
0

> <PUBCHEM_ATOM_UDEF_STEREO_COUNT>
0

> <PUBCHEM_BOND_DEF_STEREO_COUNT>
0

> <PUBCHEM_BOND_UDEF_STEREO_COUNT>
0

> <PUBCHEM_ISOTOPIC_ATOM_COUNT>
0

> <PUBCHEM_COMPONENT_COUNT>
1

> <PUBCHEM_CACTVS_TAUTO_COUNT>
13

> <PUBCHEM_CONFORMER_ID>
036BC44200000001

> <PUBCHEM_MMFF94_ENERGY>
71.0819

> <PUBCHEM_FEATURE_SELFOVERLAP>
61.01

> <PUBCHEM_SHAPE_FINGERPRINT>
10675989 125 18116429228670285083
12124843 1 18196351664664164853
12539747 91 17752776998435395963
12788726 201 18410008815042829842
13690498 29 17986665077441534359
13782708 43 12463579452460172798
13947920 24 17894902997797779869
14114211 80 17910952440997279085
14394314 77 18339086982627232305
14765038 42 18199198287267848009
14931854 50 18338502064099792861
15021287 119 12319732562021562050
15082195 135 18410301324308007796
15183329 4 18412260640521186955
15276724 80 18269280071278118405
18769570 83 16950560012652218518
20715895 44 18187366545466649638
20771845 165 17978783846306508897
21304303 64 18337121098775002793
21424621 283 17748827397300060227
22122407 14 15719972344539642812
221357 26 18340476838554741967
23522609 53 10806811300811288618
23559900 14 18341329002151018936
23569914 152 17480307764552849646
2838139 119 18334576879885683894
3117164 225 8718530719153477956
4353968 344 18272377422126170670
5283173 99 18333731320815062929
5776283 40 18408037425561068993
636775 8 9727092975249626824
6376802 90 18259992599327196114
999808 66 10880002358561432870

> <PUBCHEM_SHAPE_MULTIPOLES>
596.34
17.58
3.98
1.37
10.91
2.54
0.13
4.73
-10.16
-2.29
0.19
-1.42
0.06
0.19

> <PUBCHEM_SHAPE_SELFOVERLAP>
1296.031

> <PUBCHEM_SHAPE_VOLUME>
328.2

> <PUBCHEM_COORDINATE_TYPE>
2
5
10

$$$$
57401229
  -OEChem-05102415093D

 53 56  0     0  0  0  0  0  0999 V2000
    0.2503   -3.2270    1.2556 O   0  0  0  0  0  0  0  0  0  0  0  0
    1.7320    0.8605   -2.0349 O   0  0  0  0  0  0  0  0  0  0  0  0
    6.2033   -1.8941   -0.8691 O   0  0  0  0  0  0  0  0  0  0  0  0
   -0.8893    0.3762   -0.8334 N   0  0  0  0  0  0  0  0  0  0  0  0
   -3.2002   -0.1294   -0.3786 N   0  0  0  0  0  0  0  0  0  0  0  0
    2.2640    2.1402   -0.1758 N   0  0  0  0  0  0  0  0  0  0  0  0
   -6.8021   -2.0920   -0.2711 N   0  0  0  0  0  0  0  0  0  0  0  0
   -7.5871   -1.2372    0.4068 N   0  0  0  0  0  0  0  0  0  0  0  0
   -0.5615   -0.8361   -1.5530 C   0  0  0  0  0  0  0  0  0  0  0  0
   -2.1189    0.6694   -0.3049 C   0  0  0  0  0  0  0  0  0  0  0  0
   -0.0211    1.4053   -0.5760 C   0  0  0  0  0  0  0  0  0  0  0  0
   -2.0358    1.9175    0.3055 C   0  0  0  0  0  0  0  0  0  0  0  0
   -0.7033    2.3746    0.1273 C   0  0  0  0  0  0  0  0  0  0  0  0
    0.1995   -1.8643   -0.7131 C   0  0  0  0  0  0  0  0  0  0  0  0
   -3.1971    2.4156    0.9179 C   0  0  0  0  0  0  0  0  0  0  0  0
    1.3507    1.4309   -0.9833 C   0  0  0  0  0  0  0  0  0  0  0  0
   -4.2885    0.3999    0.2270 C   0  0  0  0  0  0  0  0  0  0  0  0
   -0.5293   -2.2580    0.5665 C   0  0  0  0  0  0  0  0  0  0  0  0
   -4.3463    1.6284    0.8713 C   0  0  0  0  0  0  0  0  0  0  0  0
    3.6735    2.2771   -0.4642 C   0  0  0  0  0  0  0  0  0  0  0  0
   -5.4668   -0.4209    0.1710 C   0  0  0  0  0  0  0  0  0  0  0  0
    4.4824    1.1701    0.1476 C   0  0  0  0  0  0  0  0  0  0  0  0
   -5.5226   -1.6502   -0.4393 C   0  0  0  0  0  0  0  0  0  0  0  0
   -6.7659   -0.2184    0.6742 C   0  0  0  0  0  0  0  0  0  0  0  0
    4.9738    0.1401   -0.6544 C   0  0  0  0  0  0  0  0  0  0  0  0
    4.7419    1.1711    1.5183 C   0  0  0  0  0  0  0  0  0  0  0  0
    5.7249   -0.8889   -0.0861 C   0  0  0  0  0  0  0  0  0  0  0  0
    5.4927    0.1421    2.0867 C   0  0  0  0  0  0  0  0  0  0  0  0
    5.9844   -0.8878    1.2846 C   0  0  0  0  0  0  0  0  0  0  0  0
    6.9625   -2.9148   -0.2229 C   0  0  0  0  0  0  0  0  0  0  0  0
   -0.0189   -0.5794   -2.4661 H   0  0  0  0  0  0  0  0  0  0  0  0
   -1.5016   -1.2841   -1.8978 H   0  0  0  0  0  0  0  0  0  0  0  0
   -0.2979    3.3152    0.4759 H   0  0  0  0  0  0  0  0  0  0  0  0
    1.1937   -1.4817   -0.4507 H   0  0  0  0  0  0  0  0  0  0  0  0
    0.3820   -2.7613   -1.3178 H   0  0  0  0  0  0  0  0  0  0  0  0
   -3.2063    3.3813    1.4129 H   0  0  0  0  0  0  0  0  0  0  0  0
   -1.5075   -2.6941    0.3406 H   0  0  0  0  0  0  0  0  0  0  0  0
   -0.6617   -1.4030    1.2353 H   0  0  0  0  0  0  0  0  0  0  0  0
   -5.2501    2.0030    1.3411 H   0  0  0  0  0  0  0  0  0  0  0  0
    1.9260    2.5711    0.6796 H   0  0  0  0  0  0  0  0  0  0  0  0
    3.8149    2.3113   -1.5505 H   0  0  0  0  0  0  0  0  0  0  0  0
    4.0016    3.2446   -0.0677 H   0  0  0  0  0  0  0  0  0  0  0  0
   -4.7935   -2.2483   -0.9687 H   0  0  0  0  0  0  0  0  0  0  0  0
   -7.1629    0.6223    1.2254 H   0  0  0  0  0  0  0  0  0  0  0  0
    4.7742    0.1309   -1.7232 H   0  0  0  0  0  0  0  0  0  0  0  0
   -0.2378   -3.4643    2.0624 H   0  0  0  0  0  0  0  0  0  0  0  0
    4.3639    1.9681    2.1532 H   0  0  0  0  0  0  0  0  0  0  0  0
   -7.2059   -2.9633   -0.5915 H   0  0  0  0  0  0  0  0  0  0  0  0
    5.6939    0.1437    3.1541 H   0  0  0  0  0  0  0  0  0  0  0  0
    6.5599   -1.6551    1.7909 H   0  0  0  0  0  0  0  0  0  0  0  0
    7.2629   -3.6315   -0.9943 H   0  0  0  0  0  0  0  0  0  0  0  0
    6.3583   -3.4648    0.5066 H   0  0  0  0  0  0  0  0  0  0  0  0
    7.8822   -2.5146    0.2172 H   0  0  0  0  0  0  0  0  0  0  0  0
  1 18  1  0  0  0  0
  1 46  1  0  0  0  0
  2 16  2  0  0  0  0
  3 27  1  0  0  0  0
  3 30  1  0  0  0  0
  4  9  1  0  0  0  0
  4 10  1  0  0  0  0
  4 11  1  0  0  0  0
  5 10  1  0  0  0  0
  5 17  2  0  0  0  0
  6 16  1  0  0  0  0
  6 20  1  0  0  0  0
  6 40  1  0  0  0  0
  7  8  1  0  0  0  0
  7 23  1  0  0  0  0
  7 48  1  0  0  0  0
  8 24  2  0  0  0  0
  9 14  1  0  0  0  0
  9 31  1  0  0  0  0
  9 32  1  0  0  0  0
 10 12  2  0  0  0  0
 11 13  2  0  0  0  0
 11 16  1  0  0  0  0
 12 13  1  0  0  0  0
 12 15  1  0  0  0  0
 13 33  1  0  0  0  0
 14 18  1  0  0  0  0
 14 34  1  0  0  0  0
 14 35  1  0  0  0  0
 15 19  2  0  0  0  0
 15 36  1  0  0  0  0
 17 19  1  0  0  0  0
 17 21  1  0  0  0  0
 18 37  1  0  0  0  0
 18 38  1  0  0  0  0
 19 39  1  0  0  0  0
 20 22  1  0  0  0  0
 20 41  1  0  0  0  0
 20 42  1  0  0  0  0
 21 23  2  0  0  0  0
 21 24  1  0  0  0  0
 22 25  2  0  0  0  0
 22 26  1  0  0  0  0
 23 43  1  0  0  0  0
 24 44  1  0  0  0  0
 25 27  1  0  0  0  0
 25 45  1  0  0  0  0
 26 28  2  0  0  0  0
 26 47  1  0  0  0  0
 27 29  2  0  0  0  0
 28 29  1  0  0  0  0
 28 49  1  0  0  0  0
 29 50  1  0  0  0  0
 30 51  1  0  0  0  0
 30 52  1  0  0  0  0
 30 53  1  0  0  0  0
M  END
> <PUBCHEM_COMPOUND_CID>
57401229

> <PUBCHEM_CONFORMER_RMSD>
1

> <PUBCHEM_CONFORMER_DIVERSEORDER>
1
20
18
83
34
8
9
5
35
84
75
59
15
70
49
47
81
43
92
71
53
85
33
67
89
87
82
61
72
27
79
26
69
52
42
11
7
28
55
88
57
23
94
90
38
58
41
62
32
21
24
60
95
73
76
74
50
31
40
37
77
63
17
65
6
39
66
13
2
54
91
48
80
19
30
68
22
25
56
64
93
3
29
51
86
46
4
44
16
12
36
10
14
78
45

> <PUBCHEM_MMFF94_PARTIAL_CHARGES>
40
1 -0.68
10 0.11
11 -0.24
13 -0.15
15 -0.15
16 0.71
17 0.36
18 0.28
19 -0.15
2 -0.57
20 0.44
21 -0.05
22 -0.14
23 -0.3
24 0.14
25 -0.15
26 -0.15
27 0.08
28 -0.15
29 -0.15
3 -0.36
30 0.28
33 0.15
36 0.15
39 0.15
4 0.05
40 0.37
43 0.15
44 0.15
45 0.15
46 0.4
47 0.15
48 0.27
49 0.15
5 -0.57
50 0.15
6 -0.73
7 0.3
8 -0.71
9 0.26

> <PUBCHEM_EFFECTIVE_ROTOR_COUNT>
9

> <PUBCHEM_PHARMACOPHORE_FEATURES>
13
1 1 acceptor
1 1 donor
1 2 acceptor
1 3 acceptor
1 4 cation
1 5 acceptor
1 6 donor
1 7 donor
1 8 acceptor
5 4 10 11 12 13 rings
5 7 8 21 23 24 rings
6 22 25 26 27 28 29 rings
6 5 10 12 15 17 19 rings

> <PUBCHEM_HEAVY_ATOM_COUNT>
30

> <PUBCHEM_ATOM_DEF_STEREO_COUNT>
0

> <PUBCHEM_ATOM_UDEF_STEREO_COUNT>
0

> <PUBCHEM_BOND_DEF_STEREO_COUNT>
0

> <PUBCHEM_BOND_UDEF_STEREO_COUNT>
0

> <PUBCHEM_ISOTOPIC_ATOM_COUNT>
0

> <PUBCHEM_COMPONENT_COUNT>
1

> <PUBCHEM_CACTVS_TAUTO_COUNT>
13

> <PUBCHEM_CONFORMER_ID>
036BDF8D00000001

> <PUBCHEM_MMFF94_ENERGY>
64.3924

> <PUBCHEM_FEATURE_SELFOVERLAP>
66.086

> <PUBCHEM_SHAPE_FINGERPRINT>
10 15 16845291678387277553
10316853 100 18334860511342646258
10319926 262 17988648441376699420
10692045 39 17131837513179425718
10940486 97 8213842770660983681
11135926 11 18409443666894555007
11621639 179 10375605742107220931
11719270 70 18343022207524547007
12166972 35 18041281058065836021
12422481 6 18272653458556063070
12925494 130 17771625646306252968
13533116 47 18337954592654994548
13692114 37 18341331192764200847
13782708 43 17967809500906491909
13914758 101 17822004299314316437
14211702 104 18337115652128866523
15001296 14 17969497285124223810
1813 80 17676488320529287924
20028762 73 18411982459737192510
20715895 44 9871457726188326958
21130935 74 18342741866355625939
21304304 249 18335423469215744846
21792934 111 18131357376246296465
21814621 53 16127546851621172548
21987483 16 17700962508512314791
2215653 11 14923941262567306073
23522609 53 18047790089836010324
23559900 14 12540990619620528623
23576562 1 9078820871993541715
3383291 50 18408318900031469050
3472631 163 8718825401381646120
3886686 26 17479464438980837328
392239 28 18272100391744382953
42767 46 18259980453612760034
4340502 62 15841560686065619125
474113 269 18412535514686785831
5104073 3 17417264125947974929
54039377 194 17604421887865253434
563151 248 18059853986843841959

> <PUBCHEM_SHAPE_MULTIPOLES>
574.87
18.99
3.14
1.36
2.33
0.97
0.13
10.88
4.69
-0.99
0.25
-1.51
-0.03
-0.28

> <PUBCHEM_SHAPE_SELFOVERLAP>
1255.401

> <PUBCHEM_SHAPE_VOLUME>
313.6

> <PUBCHEM_COORDINATE_TYPE>
2
5
10

$$$$
57399462
  -OEChem-05102415093D

 68 72  0     0  0  0  0  0  0999 V2000
   -1.9257   -0.9843   -2.5111 O   0  0  0  0  0  0  0  0  0  0  0  0
   -5.0031   -3.8608    0.3661 O   0  0  0  0  0  0  0  0  0  0  0  0
   -0.7427    3.7608    0.6454 N   0  3  0  0  0  0  0  0  0  0  0  0
   -2.2693    0.6405   -0.8367 N   0  0  0  0  0  0  0  0  0  0  0  0
    0.6502   -1.0003   -0.6048 N   0  0  0  0  0  0  0  0  0  0  0  0
    2.9465   -1.3434    0.0374 N   0  0  0  0  0  0  0  0  0  0  0  0
    6.2772   -2.8307    1.9166 N   0  0  0  0  0  0  0  0  0  0  0  0
    7.2734   -2.1139    1.3690 N   0  0  0  0  0  0  0  0  0  0  0  0
    0.5332    3.1212    1.2309 C   0  0  0  0  0  0  0  0  0  0  0  0
   -0.3002    5.1160    0.0567 C   0  0  0  0  0  0  0  0  0  0  0  0
    1.5485    4.2467    1.2597 C   0  0  0  0  0  0  0  0  0  0  0  0
    1.2133    5.0412    0.0168 C   0  0  0  0  0  0  0  0  0  0  0  0
   -1.3285    2.8720   -0.4411 C   0  0  0  0  0  0  0  0  0  0  0  0
   -1.7829    3.9720    1.7347 C   0  0  0  0  0  0  0  0  0  0  0  0
   -1.6646    1.5094    0.1357 C   0  0  0  0  0  0  0  0  0  0  0  0
   -3.7322    0.6843   -0.9334 C   0  0  0  0  0  0  0  0  0  0  0  0
   -1.4954   -0.2109   -1.6561 C   0  0  0  0  0  0  0  0  0  0  0  0
   -0.0355   -0.1904   -1.4723 C   0  0  0  0  0  0  0  0  0  0  0  0
   -4.3873   -0.2710    0.0217 C   0  0  0  0  0  0  0  0  0  0  0  0
    0.8774    0.6169   -2.1160 C   0  0  0  0  0  0  0  0  0  0  0  0
    1.9903   -0.7263   -0.6823 C   0  0  0  0  0  0  0  0  0  0  0  0
    2.1669    0.2846   -1.6225 C   0  0  0  0  0  0  0  0  0  0  0  0
   -4.3904   -1.6387   -0.2524 C   0  0  0  0  0  0  0  0  0  0  0  0
   -4.9938    0.2091    1.1826 C   0  0  0  0  0  0  0  0  0  0  0  0
    0.0539   -1.9942    0.2622 C   0  0  0  0  0  0  0  0  0  0  0  0
   -4.9996   -2.5264    0.6345 C   0  0  0  0  0  0  0  0  0  0  0  0
   -5.6031   -0.6786    2.0694 C   0  0  0  0  0  0  0  0  0  0  0  0
    3.4793    0.7229   -1.8612 C   0  0  0  0  0  0  0  0  0  0  0  0
   -5.6059   -2.0464    1.7955 C   0  0  0  0  0  0  0  0  0  0  0  0
    4.1897   -0.8818   -0.2328 C   0  0  0  0  0  0  0  0  0  0  0  0
    4.5086    0.1172   -1.1427 C   0  0  0  0  0  0  0  0  0  0  0  0
    5.2416   -1.5136    0.5153 C   0  0  0  0  0  0  0  0  0  0  0  0
    5.0404   -2.5097    1.4394 C   0  0  0  0  0  0  0  0  0  0  0  0
    6.6346   -1.3109    0.5139 C   0  0  0  0  0  0  0  0  0  0  0  0
   -4.3649   -4.2822   -0.8386 C   0  0  0  0  0  0  0  0  0  0  0  0
    0.3255    2.6925    2.2156 H   0  0  0  0  0  0  0  0  0  0  0  0
    0.8855    2.3455    0.5444 H   0  0  0  0  0  0  0  0  0  0  0  0
   -0.7547    5.2579   -0.9287 H   0  0  0  0  0  0  0  0  0  0  0  0
   -0.6352    5.9114    0.7313 H   0  0  0  0  0  0  0  0  0  0  0  0
    2.5771    3.8749    1.2543 H   0  0  0  0  0  0  0  0  0  0  0  0
    1.4121    4.8612    2.1574 H   0  0  0  0  0  0  0  0  0  0  0  0
    1.6754    6.0323    0.0157 H   0  0  0  0  0  0  0  0  0  0  0  0
    1.5465    4.5080   -0.8816 H   0  0  0  0  0  0  0  0  0  0  0  0
   -2.2212    3.3751   -0.8317 H   0  0  0  0  0  0  0  0  0  0  0  0
   -0.5955    2.8151   -1.2510 H   0  0  0  0  0  0  0  0  0  0  0  0
   -2.7085    4.3255    1.2716 H   0  0  0  0  0  0  0  0  0  0  0  0
   -1.9414    3.0471    2.2930 H   0  0  0  0  0  0  0  0  0  0  0  0
   -1.3995    4.7261    2.4300 H   0  0  0  0  0  0  0  0  0  0  0  0
   -0.7922    1.0181    0.5689 H   0  0  0  0  0  0  0  0  0  0  0  0
   -2.3777    1.5865    0.9600 H   0  0  0  0  0  0  0  0  0  0  0  0
   -4.0238    0.4152   -1.9564 H   0  0  0  0  0  0  0  0  0  0  0  0
   -4.0749    1.7142   -0.7778 H   0  0  0  0  0  0  0  0  0  0  0  0
    0.6443    1.3619   -2.8648 H   0  0  0  0  0  0  0  0  0  0  0  0
   -3.9187   -1.9612   -1.1728 H   0  0  0  0  0  0  0  0  0  0  0  0
   -4.9982    1.2721    1.4087 H   0  0  0  0  0  0  0  0  0  0  0  0
   -0.7245   -2.5275   -0.2895 H   0  0  0  0  0  0  0  0  0  0  0  0
    0.8130   -2.7098    0.5867 H   0  0  0  0  0  0  0  0  0  0  0  0
   -0.3726   -1.4793    1.1265 H   0  0  0  0  0  0  0  0  0  0  0  0
   -6.0751   -0.3049    2.9734 H   0  0  0  0  0  0  0  0  0  0  0  0
    3.6920    1.5077   -2.5798 H   0  0  0  0  0  0  0  0  0  0  0  0
   -6.0821   -2.7330    2.4901 H   0  0  0  0  0  0  0  0  0  0  0  0
    5.5272    0.4479   -1.3184 H   0  0  0  0  0  0  0  0  0  0  0  0
    4.1566   -3.0166    1.8019 H   0  0  0  0  0  0  0  0  0  0  0  0
    7.2246   -0.6168   -0.0678 H   0  0  0  0  0  0  0  0  0  0  0  0
   -4.8679   -3.8777   -1.7235 H   0  0  0  0  0  0  0  0  0  0  0  0
   -3.2935   -4.0544   -0.8282 H   0  0  0  0  0  0  0  0  0  0  0  0
   -4.4585   -5.3720   -0.8891 H   0  0  0  0  0  0  0  0  0  0  0  0
    6.5133   -3.5260    2.6135 H   0  0  0  0  0  0  0  0  0  0  0  0
  1 17  2  0  0  0  0
  2 26  1  0  0  0  0
  2 35  1  0  0  0  0
  3  9  1  0  0  0  0
  3 10  1  0  0  0  0
  3 13  1  0  0  0  0
  3 14  1  0  0  0  0
  4 15  1  0  0  0  0
  4 16  1  0  0  0  0
  4 17  1  0  0  0  0
  5 18  1  0  0  0  0
  5 21  1  0  0  0  0
  5 25  1  0  0  0  0
  6 21  1  0  0  0  0
  6 30  2  0  0  0  0
  7  8  1  0  0  0  0
  7 33  1  0  0  0  0
  7 68  1  0  0  0  0
  8 34  2  0  0  0  0
  9 11  1  0  0  0  0
  9 36  1  0  0  0  0
  9 37  1  0  0  0  0
 10 12  1  0  0  0  0
 10 38  1  0  0  0  0
 10 39  1  0  0  0  0
 11 12  1  0  0  0  0
 11 40  1  0  0  0  0
 11 41  1  0  0  0  0
 12 42  1  0  0  0  0
 12 43  1  0  0  0  0
 13 15  1  0  0  0  0
 13 44  1  0  0  0  0
 13 45  1  0  0  0  0
 14 46  1  0  0  0  0
 14 47  1  0  0  0  0
 14 48  1  0  0  0  0
 15 49  1  0  0  0  0
 15 50  1  0  0  0  0
 16 19  1  0  0  0  0
 16 51  1  0  0  0  0
 16 52  1  0  0  0  0
 17 18  1  0  0  0  0
 18 20  2  0  0  0  0
 19 23  2  0  0  0  0
 19 24  1  0  0  0  0
 20 22  1  0  0  0  0
 20 53  1  0  0  0  0
 21 22  2  0  0  0  0
 22 28  1  0  0  0  0
 23 26  1  0  0  0  0
 23 54  1  0  0  0  0
 24 27  2  0  0  0  0
 24 55  1  0  0  0  0
 25 56  1  0  0  0  0
 25 57  1  0  0  0  0
 25 58  1  0  0  0  0
 26 29  2  0  0  0  0
 27 29  1  0  0  0  0
 27 59  1  0  0  0  0
 28 31  2  0  0  0  0
 28 60  1  0  0  0  0
 29 61  1  0  0  0  0
 30 31  1  0  0  0  0
 30 32  1  0  0  0  0
 31 62  1  0  0  0  0
 32 33  2  0  0  0  0
 32 34  1  0  0  0  0
 33 63  1  0  0  0  0
 34 64  1  0  0  0  0
 35 65  1  0  0  0  0
 35 66  1  0  0  0  0
 35 67  1  0  0  0  0
M  CHG  1   3   1
M  END
> <PUBCHEM_COMPOUND_CID>
57399462

> <PUBCHEM_CONFORMER_RMSD>
1.2

> <PUBCHEM_CONFORMER_DIVERSEORDER>
1
91
59
26
36
52
65
103
84
63
198
150
7
49
171
189
179
178
194
107
62
126
174
35
159
50
24
92
172
88
129
77
186
69
156
56
167
136
193
44
78
162
199
161
99
53
170
96
117
204
163
185
191
71
123
40
175
54
166
82
111
142
67
187
73
46
195
120
89
100
137
207
114
113
190
158
90
39
38
197
140
97
86
169
9
201
132
184
118
66
27
115
164
58
79
149
29
151
143
188
64
119
128
168
45
47
30
17
95
16
85
18
131
152
101
98
121
148
180
116
57
153
206
70
68
124
11
205
19
106
34
60
141
33
125
122
173
127
42
22
83
25
87
55
147
102
144
75
146
110
5
134
139
202
165
105
14
15
13
135
203
133
21
154
12
157
51
10
6
76
32
94
160
28
93
112
130
3
183
74
37
196
138
72
108
182
145
61
23
31
48
41
8
81
104
109
192
181
155
176
80
43
2
177
200
20
4

> <PUBCHEM_MMFF94_PARTIAL_CHARGES>
42
1 -0.57
10 0.5
13 0.5
14 0.5
15 0.3
16 0.44
17 0.71
18 -0.24
19 -0.14
2 -0.36
20 -0.15
21 0.11
23 -0.15
24 -0.15
25 0.26
26 0.08
27 -0.15
28 -0.15
29 -0.15
3 -1.01
30 0.36
31 -0.15
32 -0.05
33 -0.3
34 0.14
35 0.28
4 -0.66
5 0.05
53 0.15
54 0.15
55 0.15
59 0.15
6 -0.57
60 0.15
61 0.15
62 0.15
63 0.15
64 0.15
68 0.27
7 0.3
8 -0.71
9 0.5

> <PUBCHEM_EFFECTIVE_ROTOR_COUNT>
10

> <PUBCHEM_PHARMACOPHORE_FEATURES>
12
1 1 acceptor
1 2 acceptor
1 3 cation
1 5 cation
1 6 acceptor
1 7 donor
1 8 acceptor
5 3 9 10 11 12 rings
5 5 18 20 21 22 rings
5 7 8 32 33 34 rings
6 19 23 24 26 27 29 rings
6 6 21 22 28 30 31 rings

> <PUBCHEM_HEAVY_ATOM_COUNT>
35

> <PUBCHEM_ATOM_DEF_STEREO_COUNT>
0

> <PUBCHEM_ATOM_UDEF_STEREO_COUNT>
0

> <PUBCHEM_BOND_DEF_STEREO_COUNT>
0

> <PUBCHEM_BOND_UDEF_STEREO_COUNT>
0

> <PUBCHEM_ISOTOPIC_ATOM_COUNT>
0

> <PUBCHEM_COMPONENT_COUNT>
1

> <PUBCHEM_CACTVS_TAUTO_COUNT>
7

> <PUBCHEM_CONFORMER_ID>
036BD8A600000001

> <PUBCHEM_MMFF94_ENERGY>
99.9588

> <PUBCHEM_FEATURE_SELFOVERLAP>
61.011

> <PUBCHEM_SHAPE_FINGERPRINT>
10074138 170 18053951654018120753
11136131 41 17908419504396580641
11456790 92 18261690194926752561
11607047 403 17399511715684598251
11963148 33 17262435614573574143
12166972 35 17967257498793189628
12422481 6 17489579065614844296
12788726 201 18338814324890430052
13009979 54 18334860464097382684
13560911 23 18059585736630195307
13782708 43 16298381341100865806
14068700 675 18259988158657046050
14844126 61 18335702677129809251
14955137 171 17844273867525319469
15347590 135 18261663866613463936
15475509 84 18409451358595588316
15927050 60 17550679145481515805
19315092 285 17968100815674474132
19319366 153 17973739261599542604
21033648 144 12319462073909174699
21033648 29 16630540518154482839
22223350 30 17608670619237185459
22956985 138 18120367915728126785
23559900 14 17823133587992060349
2747138 104 18339636755968389354
3504750 166 18265606577139348706
392239 28 18411709776505159427
4015057 19 14924528393402492926
45266715 3 17469308692837465147
469060 322 18198361592592657112
56638632 33 18188214315875735133
613672 6 18272091552532746605
9896288 288 18125160424841463122

> <PUBCHEM_SHAPE_MULTIPOLES>
678.66
14.44
6.32
2.02
8.62
8.01
-0.2
-19.91
8.09
-1.32
2.71
0.19
-0.31
-1.99

> <PUBCHEM_SHAPE_SELFOVERLAP>
1472.97

> <PUBCHEM_SHAPE_VOLUME>
374.7

> <PUBCHEM_COORDINATE_TYPE>
2
5
10

$$$$
57399463
  -OEChem-05102415093D

 64 68  0     0  0  0  0  0  0999 V2000
    1.9500   -0.8985    2.4720 O   0  0  0  0  0  0  0  0  0  0  0  0
    5.0073   -3.7863   -0.4153 O   0  0  0  0  0  0  0  0  0  0  0  0
    0.7201    3.8009   -0.5797 N   0  0  0  0  0  0  0  0  0  0  0  0
    2.2815    0.7194    0.7887 N   0  0  0  0  0  0  0  0  0  0  0  0
   -0.6394   -0.9226    0.5841 N   0  0  0  0  0  0  0  0  0  0  0  0
   -2.9401   -1.2684   -0.0403 N   0  0  0  0  0  0  0  0  0  0  0  0
   -6.2839   -2.7636   -1.8899 N   0  0  0  0  0  0  0  0  0  0  0  0
   -7.2763   -2.0446   -1.3381 N   0  0  0  0  0  0  0  0  0  0  0  0
   -0.6963    3.4900   -0.7713 C   0  0  0  0  0  0  0  0  0  0  0  0
    0.7510    5.2134   -0.2016 C   0  0  0  0  0  0  0  0  0  0  0  0
   -1.2152    4.7093   -1.5190 C   0  0  0  0  0  0  0  0  0  0  0  0
   -0.2621    5.8411   -1.1475 C   0  0  0  0  0  0  0  0  0  0  0  0
    1.3470    2.9451    0.4167 C   0  0  0  0  0  0  0  0  0  0  0  0
    1.6698    1.5844   -0.1829 C   0  0  0  0  0  0  0  0  0  0  0  0
    3.7450    0.7639    0.8749 C   0  0  0  0  0  0  0  0  0  0  0  0
    1.5135   -0.1287    1.6170 C   0  0  0  0  0  0  0  0  0  0  0  0
    0.0524   -0.1090    1.4434 C   0  0  0  0  0  0  0  0  0  0  0  0
    4.3936   -0.1953   -0.0810 C   0  0  0  0  0  0  0  0  0  0  0  0
   -0.8560    0.7007    2.0904 C   0  0  0  0  0  0  0  0  0  0  0  0
   -1.9790   -0.6484    0.6700 C   0  0  0  0  0  0  0  0  0  0  0  0
   -2.1489    0.3663    1.6074 C   0  0  0  0  0  0  0  0  0  0  0  0
   -0.0490   -1.9198   -0.2831 C   0  0  0  0  0  0  0  0  0  0  0  0
    4.3987   -1.5618    0.1985 C   0  0  0  0  0  0  0  0  0  0  0  0
    4.9917    0.2802   -1.2482 C   0  0  0  0  0  0  0  0  0  0  0  0
   -3.4598    0.8055    1.8536 C   0  0  0  0  0  0  0  0  0  0  0  0
   -4.1814   -0.8058    0.2368 C   0  0  0  0  0  0  0  0  0  0  0  0
   -4.4939    0.1968    1.1448 C   0  0  0  0  0  0  0  0  0  0  0  0
    5.0016   -2.4531   -0.6891 C   0  0  0  0  0  0  0  0  0  0  0  0
    5.5948   -0.6109   -2.1356 C   0  0  0  0  0  0  0  0  0  0  0  0
    5.5997   -1.9776   -1.8563 C   0  0  0  0  0  0  0  0  0  0  0  0
   -5.2385   -1.4407   -0.5013 C   0  0  0  0  0  0  0  0  0  0  0  0
   -5.0438   -2.4406   -1.4228 C   0  0  0  0  0  0  0  0  0  0  0  0
   -6.6316   -1.2382   -0.4908 C   0  0  0  0  0  0  0  0  0  0  0  0
    4.3777   -4.2029    0.7955 C   0  0  0  0  0  0  0  0  0  0  0  0
   -0.8560    2.5766   -1.3522 H   0  0  0  0  0  0  0  0  0  0  0  0
   -1.2275    3.3939    0.1843 H   0  0  0  0  0  0  0  0  0  0  0  0
    0.4303    5.3611    0.8377 H   0  0  0  0  0  0  0  0  0  0  0  0
    1.7450    5.6542   -0.3269 H   0  0  0  0  0  0  0  0  0  0  0  0
   -2.2481    4.9413   -1.2402 H   0  0  0  0  0  0  0  0  0  0  0  0
   -1.1885    4.5430   -2.6023 H   0  0  0  0  0  0  0  0  0  0  0  0
    0.2310    6.2214   -2.0497 H   0  0  0  0  0  0  0  0  0  0  0  0
   -0.7888    6.6764   -0.6750 H   0  0  0  0  0  0  0  0  0  0  0  0
    2.2948    3.4013    0.7329 H   0  0  0  0  0  0  0  0  0  0  0  0
    0.7416    2.8677    1.3260 H   0  0  0  0  0  0  0  0  0  0  0  0
    0.7720    1.1159   -0.5931 H   0  0  0  0  0  0  0  0  0  0  0  0
    2.3505    1.7002   -1.0355 H   0  0  0  0  0  0  0  0  0  0  0  0
    4.0880    1.7923    0.7121 H   0  0  0  0  0  0  0  0  0  0  0  0
    4.0439    0.4989    1.8968 H   0  0  0  0  0  0  0  0  0  0  0  0
   -0.6182    1.4482    2.8352 H   0  0  0  0  0  0  0  0  0  0  0  0
    0.7210   -2.4622    0.2715 H   0  0  0  0  0  0  0  0  0  0  0  0
   -0.8133   -2.6267   -0.6143 H   0  0  0  0  0  0  0  0  0  0  0  0
    0.3874   -1.4066   -1.1435 H   0  0  0  0  0  0  0  0  0  0  0  0
    3.9336   -1.8807    1.1235 H   0  0  0  0  0  0  0  0  0  0  0  0
    4.9945    1.3423   -1.4785 H   0  0  0  0  0  0  0  0  0  0  0  0
   -3.6675    1.5930    2.5707 H   0  0  0  0  0  0  0  0  0  0  0  0
   -5.5113    0.5281    1.3265 H   0  0  0  0  0  0  0  0  0  0  0  0
    6.0604   -0.2408   -3.0444 H   0  0  0  0  0  0  0  0  0  0  0  0
    6.0711   -2.6670   -2.5515 H   0  0  0  0  0  0  0  0  0  0  0  0
   -4.1624   -2.9489   -1.7895 H   0  0  0  0  0  0  0  0  0  0  0  0
   -7.2175   -0.5419    0.0923 H   0  0  0  0  0  0  0  0  0  0  0  0
   -6.5248   -3.4617   -2.5823 H   0  0  0  0  0  0  0  0  0  0  0  0
    4.4717   -5.2925    0.8498 H   0  0  0  0  0  0  0  0  0  0  0  0
    3.3062   -3.9753    0.7918 H   0  0  0  0  0  0  0  0  0  0  0  0
    4.8869   -3.7948    1.6752 H   0  0  0  0  0  0  0  0  0  0  0  0
  1 16  2  0  0  0  0
  2 28  1  0  0  0  0
  2 34  1  0  0  0  0
  3  9  1  0  0  0  0
  3 10  1  0  0  0  0
  3 13  1  0  0  0  0
  4 14  1  0  0  0  0
  4 15  1  0  0  0  0
  4 16  1  0  0  0  0
  5 17  1  0  0  0  0
  5 20  1  0  0  0  0
  5 22  1  0  0  0  0
  6 20  1  0  0  0  0
  6 26  2  0  0  0  0
  7  8  1  0  0  0  0
  7 32  1  0  0  0  0
  7 61  1  0  0  0  0
  8 33  2  0  0  0  0
  9 11  1  0  0  0  0
  9 35  1  0  0  0  0
  9 36  1  0  0  0  0
 10 12  1  0  0  0  0
 10 37  1  0  0  0  0
 10 38  1  0  0  0  0
 11 12  1  0  0  0  0
 11 39  1  0  0  0  0
 11 40  1  0  0  0  0
 12 41  1  0  0  0  0
 12 42  1  0  0  0  0
 13 14  1  0  0  0  0
 13 43  1  0  0  0  0
 13 44  1  0  0  0  0
 14 45  1  0  0  0  0
 14 46  1  0  0  0  0
 15 18  1  0  0  0  0
 15 47  1  0  0  0  0
 15 48  1  0  0  0  0
 16 17  1  0  0  0  0
 17 19  2  0  0  0  0
 18 23  2  0  0  0  0
 18 24  1  0  0  0  0
 19 21  1  0  0  0  0
 19 49  1  0  0  0  0
 20 21  2  0  0  0  0
 21 25  1  0  0  0  0
 22 50  1  0  0  0  0
 22 51  1  0  0  0  0
 22 52  1  0  0  0  0
 23 28  1  0  0  0  0
 23 53  1  0  0  0  0
 24 29  2  0  0  0  0
 24 54  1  0  0  0  0
 25 27  2  0  0  0  0
 25 55  1  0  0  0  0
 26 27  1  0  0  0  0
 26 31  1  0  0  0  0
 27 56  1  0  0  0  0
 28 30  2  0  0  0  0
 29 30  1  0  0  0  0
 29 57  1  0  0  0  0
 30 58  1  0  0  0  0
 31 32  2  0  0  0  0
 31 33  1  0  0  0  0
 32 59  1  0  0  0  0
 33 60  1  0  0  0  0
 34 62  1  0  0  0  0
 34 63  1  0  0  0  0
 34 64  1  0  0  0  0
M  END
> <PUBCHEM_COMPOUND_CID>
57399463

> <PUBCHEM_CONFORMER_RMSD>
1

> <PUBCHEM_CONFORMER_DIVERSEORDER>
1
106
100
68
34
85
98
120
24
82
124
10
6
113
9
53
37
64
92
22
41
13
117
11
65
33
58
35
27
78
51
19
48
114
79
118
91
17
45
59
28
61
43
119
94
112
16
73
90
18
14
105
96
60
52
70
89
115
101
103
50
80
116
81
55
31
108
87
12
23
111
67
66
46
121
84
30
29
20
32
127
72
77
123
38
126
54
21
102
110
63
86
122
47
88
75
15
74
49
109
40
99
4
57
62
95
39
25
107
83
5
36
93
8
125
104
26
42
71
76
3
56
69
97
44
7
2

> <PUBCHEM_MMFF94_PARTIAL_CHARGES>
41
1 -0.57
10 0.27
13 0.27
14 0.3
15 0.44
16 0.71
17 -0.24
18 -0.14
19 -0.15
2 -0.36
20 0.11
22 0.26
23 -0.15
24 -0.15
25 -0.15
26 0.36
27 -0.15
28 0.08
29 -0.15
3 -0.81
30 -0.15
31 -0.05
32 -0.3
33 0.14
34 0.28
4 -0.66
49 0.15
5 0.05
53 0.15
54 0.15
55 0.15
56 0.15
57 0.15
58 0.15
59 0.15
6 -0.57
60 0.15
61 0.27
7 0.3
8 -0.71
9 0.27

> <PUBCHEM_EFFECTIVE_ROTOR_COUNT>
10

> <PUBCHEM_PHARMACOPHORE_FEATURES>
12
1 1 acceptor
1 2 acceptor
1 3 cation
1 5 cation
1 6 acceptor
1 7 donor
1 8 acceptor
5 3 9 10 11 12 rings
5 5 17 19 20 21 rings
5 7 8 31 32 33 rings
6 18 23 24 28 29 30 rings
6 6 20 21 25 26 27 rings

> <PUBCHEM_HEAVY_ATOM_COUNT>
34

> <PUBCHEM_ATOM_DEF_STEREO_COUNT>
0

> <PUBCHEM_ATOM_UDEF_STEREO_COUNT>
0

> <PUBCHEM_BOND_DEF_STEREO_COUNT>
0

> <PUBCHEM_BOND_UDEF_STEREO_COUNT>
0

> <PUBCHEM_ISOTOPIC_ATOM_COUNT>
0

> <PUBCHEM_COMPONENT_COUNT>
1

> <PUBCHEM_CACTVS_TAUTO_COUNT>
7

> <PUBCHEM_CONFORMER_ID>
036BD8A700000001

> <PUBCHEM_MMFF94_ENERGY>
81.7441

> <PUBCHEM_FEATURE_SELFOVERLAP>
61.011

> <PUBCHEM_SHAPE_FINGERPRINT>
11070050 100 8718560367239136036
11093857 51 17760093208245549452
11331351 85 18342746187294069473
11386260 185 18192132997499029709
11991303 11 17609778591301798357
12166972 35 18271807973317459345
12788726 201 18041010497017489440
131258 38 17344044523691193798
13692114 37 17617079327151477272
13782708 43 16415193503680369811
14068700 675 18131356310445391841
14289585 56 18334851715201625509
14347332 77 18337669690004088666
14955137 171 18117867501912199289
15392192 104 12246558011042746287
15664445 248 18192985135720562410
16628084 112 18120378661963876195
20775438 99 17978778331483792535
21344244 181 17116639839600182540
23559900 14 18339921649264515259
24771293 8 18341049730983369016
24771750 20 17320158819015360972
376196 1 17106772259717657401
4046055 25 18342736334506690453
4066623 53 18113892793295558636
70251023 43 18409445907775804593
7164475 11 18189625934809423496

> <PUBCHEM_SHAPE_MULTIPOLES>
658.08
14.72
6.43
2
8.9
10.71
-0.21
-20.11
8.45
-1.47
3.47
0.21
-0.31
-1.49

> <PUBCHEM_SHAPE_SELFOVERLAP>
1435.686

> <PUBCHEM_SHAPE_VOLUME>
361.3

> <PUBCHEM_COORDINATE_TYPE>
2
5
10

$$$$
57397801
  -OEChem-05102415093D

 46 49  0     0  0  0  0  0  0999 V2000
    1.8536   -2.4865    1.5430 O   0  0  0  0  0  0  0  0  0  0  0  0
    4.6836    2.7244    1.4175 O   0  0  0  0  0  0  0  0  0  0  0  0
    2.2743   -1.5027   -0.5353 N   0  0  0  0  0  0  0  0  0  0  0  0
   -0.5859   -0.5082    0.2595 N   0  0  0  0  0  0  0  0  0  0  0  0
   -2.8258    0.3488    0.0338 N   0  0  0  0  0  0  0  0  0  0  0  0
   -5.9677    2.9531   -0.3969 N   0  0  0  0  0  0  0  0  0  0  0  0
   -7.0338    2.1349   -0.4049 N   0  0  0  0  0  0  0  0  0  0  0  0
    0.0057   -1.7366    0.4005 C   0  0  0  0  0  0  0  0  0  0  0  0
   -2.2307   -2.0186    0.2687 C   0  0  0  0  0  0  0  0  0  0  0  0
   -1.9450   -0.6594    0.1774 C   0  0  0  0  0  0  0  0  0  0  0  0
    3.7255   -1.6725   -0.5092 C   0  0  0  0  0  0  0  0  0  0  0  0
   -0.9882   -2.6913    0.4102 C   0  0  0  0  0  0  0  0  0  0  0  0
    1.4171   -1.9288    0.5129 C   0  0  0  0  0  0  0  0  0  0  0  0
    4.4460   -0.3557   -0.5424 C   0  0  0  0  0  0  0  0  0  0  0  0
   -3.5805   -2.4006    0.2058 C   0  0  0  0  0  0  0  0  0  0  0  0
   -4.1094   -0.0768   -0.0208 C   0  0  0  0  0  0  0  0  0  0  0  0
    1.7366   -0.8555   -1.7237 C   0  0  0  0  0  0  0  0  0  0  0  0
   -4.5349   -1.3960    0.0570 C   0  0  0  0  0  0  0  0  0  0  0  0
    4.2284    0.5839    0.4654 C   0  0  0  0  0  0  0  0  0  0  0  0
    5.3325   -0.0715   -1.5813 C   0  0  0  0  0  0  0  0  0  0  0  0
   -5.0838    0.9681   -0.1741 C   0  0  0  0  0  0  0  0  0  0  0  0
    4.8971    1.8076    0.4345 C   0  0  0  0  0  0  0  0  0  0  0  0
    6.0010    1.1524   -1.6124 C   0  0  0  0  0  0  0  0  0  0  0  0
    5.7836    2.0918   -0.6045 C   0  0  0  0  0  0  0  0  0  0  0  0
   -4.7759    2.3039   -0.2610 C   0  0  0  0  0  0  0  0  0  0  0  0
   -6.4877    0.9237   -0.2684 C   0  0  0  0  0  0  0  0  0  0  0  0
    3.7642    2.3679    2.4488 C   0  0  0  0  0  0  0  0  0  0  0  0
    3.9979   -2.3042   -1.3631 H   0  0  0  0  0  0  0  0  0  0  0  0
    4.0219   -2.2184    0.3936 H   0  0  0  0  0  0  0  0  0  0  0  0
   -0.8377   -3.7583    0.5073 H   0  0  0  0  0  0  0  0  0  0  0  0
   -0.0988    0.3768    0.2265 H   0  0  0  0  0  0  0  0  0  0  0  0
   -3.8775   -3.4424    0.2702 H   0  0  0  0  0  0  0  0  0  0  0  0
    2.3836   -1.0551   -2.5840 H   0  0  0  0  0  0  0  0  0  0  0  0
    0.7416   -1.2298   -1.9754 H   0  0  0  0  0  0  0  0  0  0  0  0
    1.6873    0.2232   -1.5493 H   0  0  0  0  0  0  0  0  0  0  0  0
   -5.5814   -1.6793    0.0071 H   0  0  0  0  0  0  0  0  0  0  0  0
    3.5344    0.3097    1.2529 H   0  0  0  0  0  0  0  0  0  0  0  0
    5.5114   -0.7933   -2.3736 H   0  0  0  0  0  0  0  0  0  0  0  0
    6.6909    1.3740   -2.4215 H   0  0  0  0  0  0  0  0  0  0  0  0
    6.3072    3.0434   -0.6342 H   0  0  0  0  0  0  0  0  0  0  0  0
   -3.8441    2.8524   -0.2405 H   0  0  0  0  0  0  0  0  0  0  0  0
   -7.1485    0.0687   -0.2451 H   0  0  0  0  0  0  0  0  0  0  0  0
   -6.1262    3.9488   -0.4887 H   0  0  0  0  0  0  0  0  0  0  0  0
    3.7147    3.2130    3.1433 H   0  0  0  0  0  0  0  0  0  0  0  0
    4.1174    1.5041    3.0222 H   0  0  0  0  0  0  0  0  0  0  0  0
    2.7532    2.2200    2.0540 H   0  0  0  0  0  0  0  0  0  0  0  0
  1 13  2  0  0  0  0
  2 22  1  0  0  0  0
  2 27  1  0  0  0  0
  3 11  1  0  0  0  0
  3 13  1  0  0  0  0
  3 17  1  0  0  0  0
  4  8  1  0  0  0  0
  4 10  1  0  0  0  0
  4 31  1  0  0  0  0
  5 10  1  0  0  0  0
  5 16  2  0  0  0  0
  6  7  1  0  0  0  0
  6 25  1  0  0  0  0
  6 43  1  0  0  0  0
  7 26  2  0  0  0  0
  8 12  2  0  0  0  0
  8 13  1  0  0  0  0
  9 10  2  0  0  0  0
  9 12  1  0  0  0  0
  9 15  1  0  0  0  0
 11 14  1  0  0  0  0
 11 28  1  0  0  0  0
 11 29  1  0  0  0  0
 12 30  1  0  0  0  0
 14 19  2  0  0  0  0
 14 20  1  0  0  0  0
 15 18  2  0  0  0  0
 15 32  1  0  0  0  0
 16 18  1  0  0  0  0
 16 21  1  0  0  0  0
 17 33  1  0  0  0  0
 17 34  1  0  0  0  0
 17 35  1  0  0  0  0
 18 36  1  0  0  0  0
 19 22  1  0  0  0  0
 19 37  1  0  0  0  0
 20 23  2  0  0  0  0
 20 38  1  0  0  0  0
 21 25  2  0  0  0  0
 21 26  1  0  0  0  0
 22 24  2  0  0  0  0
 23 24  1  0  0  0  0
 23 39  1  0  0  0  0
 24 40  1  0  0  0  0
 25 41  1  0  0  0  0
 26 42  1  0  0  0  0
 27 44  1  0  0  0  0
 27 45  1  0  0  0  0
 27 46  1  0  0  0  0
M  END
> <PUBCHEM_COMPOUND_CID>
57397801

> <PUBCHEM_CONFORMER_RMSD>
0.8

> <PUBCHEM_CONFORMER_DIVERSEORDER>
1
291
129
40
339
271
116
281
321
95
261
310
73
132
265
298
203
144
221
232
303
22
244
327
270
31
239
158
29
123
27
212
184
319
35
334
97
267
191
120
294
159
338
192
200
299
45
263
167
260
55
269
268
336
48
285
311
190
330
279
340
18
202
168
223
241
12
94
337
240
228
256
331
320
297
342
198
166
322
343
258
288
287
16
107
180
218
193
242
292
171
85
69
272
230
273
110
222
134
195
149
243
293
194
81
259
46
213
346
113
251
252
206
51
151
19
302
170
140
301
24
208
121
87
335
10
348
245
127
177
101
317
316
8
74
247
220
90
229
157
277
42
182
278
38
249
300
32
333
67
197
178
172
62
205
115
328
275
80
60
152
189
43
79
234
283
163
153
315
13
104
70
84
105
349
63
323
161
246
64
59
76
136
255
188
207
148
137
307
15
216
209
276
25
155
173
52
47
58
257
108
139
312
295
33
26
309
57
39
54
91
280
341
233
329
154
344
71
9
284
17
119
160
21
236
142
106
345
114
131
181
231
199
304
286
14
326
175
217
125
266
36
34
248
332
165
187
143
72
124
314
274
201
176
138
82
100
111
253
150
135
77
210
186
214
96
88
164
68
28
264
23
227
86
185
308
11
92
128
225
53
196
296
169
262
41
174
250
44
122
183
146
20
313
305
109
215
204
7
282
179
156
83
61
65
147
133
112
145
102
99
126
30
93
78
347
118
238
318
211
98
324
117
289
219
306
50
130
224
141
75
6
37
162
290
103
49
3
66
235
237
2
5
56
254
226
4
89
325

> <PUBCHEM_MMFF94_PARTIAL_CHARGES>
37
1 -0.57
10 0.11
11 0.44
12 -0.15
13 0.71
14 -0.14
15 -0.15
16 0.36
17 0.3
18 -0.15
19 -0.15
2 -0.36
20 -0.15
21 -0.05
22 0.08
23 -0.15
24 -0.15
25 -0.3
26 0.14
27 0.28
3 -0.66
30 0.15
31 0.27
32 0.15
36 0.15
37 0.15
38 0.15
39 0.15
4 0.03
40 0.15
41 0.15
42 0.15
43 0.27
5 -0.57
6 0.3
7 -0.71
8 -0.24

> <PUBCHEM_EFFECTIVE_ROTOR_COUNT>
6

> <PUBCHEM_PHARMACOPHORE_FEATURES>
11
1 1 acceptor
1 2 acceptor
1 4 cation
1 4 donor
1 5 acceptor
1 6 donor
1 7 acceptor
5 4 8 9 10 12 rings
5 6 7 21 25 26 rings
6 14 19 20 22 23 24 rings
6 5 9 10 15 16 18 rings

> <PUBCHEM_HEAVY_ATOM_COUNT>
27

> <PUBCHEM_ATOM_DEF_STEREO_COUNT>
0

> <PUBCHEM_ATOM_UDEF_STEREO_COUNT>
0

> <PUBCHEM_BOND_DEF_STEREO_COUNT>
0

> <PUBCHEM_BOND_UDEF_STEREO_COUNT>
0

> <PUBCHEM_ISOTOPIC_ATOM_COUNT>
0

> <PUBCHEM_COMPONENT_COUNT>
1

> <PUBCHEM_CACTVS_TAUTO_COUNT>
25

> <PUBCHEM_CONFORMER_ID>
036BD22900000001

> <PUBCHEM_MMFF94_ENERGY>
72.8227

> <PUBCHEM_FEATURE_SELFOVERLAP>
55.935

> <PUBCHEM_SHAPE_FINGERPRINT>
10 15 17968104118709864865
11408170 253 17556582042167551305
11595378 159 16515672339171409420
12403259 415 18342462598638872346
12422481 6 16805591526133008231
12596602 18 16153989192042512168
12633257 1 15285652005303866631
12778500 126 17968087613414401064
13878862 14 18263344928970130166
13944108 23 17764589811813825649
14251740 57 8358261470979482848
14556957 393 16128388068495844921
14739800 52 18336253579119931011
14790565 3 18194121811811477625
14931854 50 18130521781711091164
15082195 135 17846496976693677107
15183329 4 17989211425489217537
15238133 3 18335698404138704424
15721738 15 18060146392897221654
17959699 21 18410857663657719154
19053607 189 18195803188508541120
19301679 30 8862937312729433005
1979834 28 12685089281247908632
20058555 10 18262518092264098981
20398071 356 10375862001018953165
20691028 202 18335138636292345477
20715895 44 18410854352512045696
21033648 29 18337670931671312024
21279426 13 18272938232262867976
21304253 335 18186810161938293951
21424621 283 18186524297969249403
21475661 188 18340200907958732856
22289505 5 18202009841652404972
22864921 267 12757423887670525253
23522609 53 10735036268608853587
23559900 14 18271524174574388402
23569914 2 17838288078642300561
2747138 104 18044667635758091043
2748736 6 18260541217279828957
2838139 119 18270674376692104718
3388396 114 15625385787271509040
3459 39 18113889477073864572
3472631 163 18410857633677389903
34797466 226 17774731942832372351
3918712 181 18334289872759916589
42767 28 18273221889177910872
44249763 50 17987506164479605679
44317340 157 17917711318353866639
465052 167 9367338237010645330
508706 21 18265330784087080073
5104073 3 17748826302168147027
5223283 242 17555762930760759326
54583773 228 18335415752752691013
57091435 61 18335416880957361392
59682541 52 16988847150830803268
653340 110 17897442787879939069
6898599 12 18341611568429230991
7970288 3 10663814157325587861

> <PUBCHEM_SHAPE_MULTIPOLES>
519
17.89
3.51
1.38
7.75
0.73
-0.32
16.2
4.08
1.49
-0.94
-2.68
0.54
1.97

> <PUBCHEM_SHAPE_SELFOVERLAP>
1148.074

> <PUBCHEM_SHAPE_VOLUME>
280

> <PUBCHEM_COORDINATE_TYPE>
2
5
10

$$$$
52934381
  -OEChem-05102415093D

 50 54  0     0  0  0  0  0  0999 V2000
    1.8065   -2.5103    1.4211 O   0  0  0  0  0  0  0  0  0  0  0  0
    5.0144    3.2194   -0.3028 O   0  0  0  0  0  0  0  0  0  0  0  0
    2.1612   -1.3539   -0.5816 N   0  0  0  0  0  0  0  0  0  0  0  0
   -0.6734   -0.4521    0.3669 N   0  0  0  0  0  0  0  0  0  0  0  0
   -2.9196    0.4124    0.2673 N   0  0  0  0  0  0  0  0  0  0  0  0
   -6.0758    3.0319    0.1408 N   0  0  0  0  0  0  0  0  0  0  0  0
   -7.1401    2.2134    0.0816 N   0  0  0  0  0  0  0  0  0  0  0  0
    1.6209   -0.6241   -1.7118 C   0  0  0  0  0  0  0  0  0  0  0  0
    0.5482   -1.2142   -2.5795 C   0  0  0  0  0  0  0  0  0  0  0  0
    1.9361   -1.0331   -3.1206 C   0  0  0  0  0  0  0  0  0  0  0  0
    3.6130   -1.4656   -0.5260 C   0  0  0  0  0  0  0  0  0  0  0  0
    1.3377   -1.8815    0.4481 C   0  0  0  0  0  0  0  0  0  0  0  0
    4.2369   -0.3179    0.2142 C   0  0  0  0  0  0  0  0  0  0  0  0
   -0.0763   -1.6858    0.3836 C   0  0  0  0  0  0  0  0  0  0  0  0
   -1.0675   -2.6416    0.3282 C   0  0  0  0  0  0  0  0  0  0  0  0
    4.3364    0.9330   -0.3949 C   0  0  0  0  0  0  0  0  0  0  0  0
    4.7176   -0.5027    1.5107 C   0  0  0  0  0  0  0  0  0  0  0  0
   -2.3143   -1.9640    0.2745 C   0  0  0  0  0  0  0  0  0  0  0  0
   -2.0337   -0.6010    0.3005 C   0  0  0  0  0  0  0  0  0  0  0  0
    4.9166    1.9993    0.2924 C   0  0  0  0  0  0  0  0  0  0  0  0
    5.2979    0.5634    2.1979 C   0  0  0  0  0  0  0  0  0  0  0  0
   -3.6643   -2.3444    0.2060 C   0  0  0  0  0  0  0  0  0  0  0  0
    5.3972    1.8145    1.5888 C   0  0  0  0  0  0  0  0  0  0  0  0
   -4.2031   -0.0118    0.2018 C   0  0  0  0  0  0  0  0  0  0  0  0
   -4.6239   -1.3345    0.1691 C   0  0  0  0  0  0  0  0  0  0  0  0
   -5.1829    1.0387    0.1645 C   0  0  0  0  0  0  0  0  0  0  0  0
   -4.8798    2.3780    0.1921 C   0  0  0  0  0  0  0  0  0  0  0  0
   -6.5884    0.9971    0.0964 C   0  0  0  0  0  0  0  0  0  0  0  0
    4.5025    3.3373   -1.6295 C   0  0  0  0  0  0  0  0  0  0  0  0
    1.5470    0.4414   -1.5163 H   0  0  0  0  0  0  0  0  0  0  0  0
    0.2256   -2.2366   -2.4276 H   0  0  0  0  0  0  0  0  0  0  0  0
   -0.2258   -0.5515   -2.9473 H   0  0  0  0  0  0  0  0  0  0  0  0
    2.5148   -1.9310   -3.2986 H   0  0  0  0  0  0  0  0  0  0  0  0
    2.0962   -0.2472   -3.8486 H   0  0  0  0  0  0  0  0  0  0  0  0
    4.0331   -1.5304   -1.5360 H   0  0  0  0  0  0  0  0  0  0  0  0
    3.8684   -2.4124   -0.0345 H   0  0  0  0  0  0  0  0  0  0  0  0
   -0.9124   -3.7123    0.3248 H   0  0  0  0  0  0  0  0  0  0  0  0
   -0.1887    0.4342    0.4014 H   0  0  0  0  0  0  0  0  0  0  0  0
    3.9627    1.0201   -1.4090 H   0  0  0  0  0  0  0  0  0  0  0  0
    4.6461   -1.4711    1.9985 H   0  0  0  0  0  0  0  0  0  0  0  0
    5.6721    0.4197    3.2073 H   0  0  0  0  0  0  0  0  0  0  0  0
   -3.9575   -3.3890    0.1822 H   0  0  0  0  0  0  0  0  0  0  0  0
    5.8502    2.6412    2.1292 H   0  0  0  0  0  0  0  0  0  0  0  0
   -5.6706   -1.6164    0.1161 H   0  0  0  0  0  0  0  0  0  0  0  0
   -3.9491    2.9263    0.2424 H   0  0  0  0  0  0  0  0  0  0  0  0
   -7.2466    0.1407    0.0565 H   0  0  0  0  0  0  0  0  0  0  0  0
    5.0554    2.7044   -2.3320 H   0  0  0  0  0  0  0  0  0  0  0  0
    3.4234    3.1523   -1.6633 H   0  0  0  0  0  0  0  0  0  0  0  0
    4.6581    4.3744   -1.9445 H   0  0  0  0  0  0  0  0  0  0  0  0
   -6.2384    4.0311    0.1427 H   0  0  0  0  0  0  0  0  0  0  0  0
  1 12  2  0  0  0  0
  2 20  1  0  0  0  0
  2 29  1  0  0  0  0
  3  8  1  0  0  0  0
  3 11  1  0  0  0  0
  3 12  1  0  0  0  0
  4 14  1  0  0  0  0
  4 19  1  0  0  0  0
  4 38  1  0  0  0  0
  5 19  1  0  0  0  0
  5 24  2  0  0  0  0
  6  7  1  0  0  0  0
  6 27  1  0  0  0  0
  6 50  1  0  0  0  0
  7 28  2  0  0  0  0
  8  9  1  0  0  0  0
  8 10  1  0  0  0  0
  8 30  1  0  0  0  0
  9 10  1  0  0  0  0
  9 31  1  0  0  0  0
  9 32  1  0  0  0  0
 10 33  1  0  0  0  0
 10 34  1  0  0  0  0
 11 13  1  0  0  0  0
 11 35  1  0  0  0  0
 11 36  1  0  0  0  0
 12 14  1  0  0  0  0
 13 16  2  0  0  0  0
 13 17  1  0  0  0  0
 14 15  2  0  0  0  0
 15 18  1  0  0  0  0
 15 37  1  0  0  0  0
 16 20  1  0  0  0  0
 16 39  1  0  0  0  0
 17 21  2  0  0  0  0
 17 40  1  0  0  0  0
 18 19  2  0  0  0  0
 18 22  1  0  0  0  0
 20 23  2  0  0  0  0
 21 23  1  0  0  0  0
 21 41  1  0  0  0  0
 22 25  2  0  0  0  0
 22 42  1  0  0  0  0
 23 43  1  0  0  0  0
 24 25  1  0  0  0  0
 24 26  1  0  0  0  0
 25 44  1  0  0  0  0
 26 27  2  0  0  0  0
 26 28  1  0  0  0  0
 27 45  1  0  0  0  0
 28 46  1  0  0  0  0
 29 47  1  0  0  0  0
 29 48  1  0  0  0  0
 29 49  1  0  0  0  0
M  END
> <PUBCHEM_COMPOUND_CID>
52934381

> <PUBCHEM_CONFORMER_RMSD>
1

> <PUBCHEM_CONFORMER_DIVERSEORDER>
1
117
51
25
102
26
141
139
38
29
24
145
36
97
111
68
157
92
22
129
156
76
23
32
140
118
149
91
54
96
62
159
41
4
130
153
9
80
58
88
63
61
123
53
122
104
132
99
119
16
42
115
10
128
72
125
60
81
77
144
14
148
45
13
90
150
19
57
12
74
135
7
101
103
40
100
107
44
71
120
152
27
112
15
136
154
106
158
11
6
55
143
8
131
109
66
87
49
116
47
28
84
73
98
64
37
94
133
56
126
18
114
138
52
21
83
67
78
124
34
146
82
33
65
105
134
127
59
108
43
17
95
142
48
79
3
86
121
46
69
147
70
113
155
39
20
35
5
50
89
85
2
30
31
93
137
75
151
110

> <PUBCHEM_MMFF94_PARTIAL_CHARGES>
44
1 -0.57
10 -0.2
11 0.44
12 0.71
13 -0.14
14 -0.24
15 -0.15
16 -0.15
17 -0.15
19 0.11
2 -0.36
20 0.08
21 -0.15
22 -0.15
23 -0.15
24 0.36
25 -0.15
26 -0.05
27 -0.3
28 0.14
29 0.28
3 -0.51
30 0.1
31 0.1
32 0.1
33 0.1
34 0.1
37 0.15
38 0.27
39 0.15
4 0.03
40 0.15
41 0.15
42 0.15
43 0.15
44 0.15
45 0.15
46 0.15
5 -0.57
50 0.27
6 0.3
7 -0.71
8 0.05
9 -0.2

> <PUBCHEM_EFFECTIVE_ROTOR_COUNT>
7.6

> <PUBCHEM_PHARMACOPHORE_FEATURES>
11
1 1 acceptor
1 2 acceptor
1 4 cation
1 4 donor
1 5 acceptor
1 6 donor
1 7 acceptor
5 4 14 15 18 19 rings
5 6 7 26 27 28 rings
6 13 16 17 20 21 23 rings
6 5 18 19 22 24 25 rings

> <PUBCHEM_HEAVY_ATOM_COUNT>
29

> <PUBCHEM_ATOM_DEF_STEREO_COUNT>
0

> <PUBCHEM_ATOM_UDEF_STEREO_COUNT>
0

> <PUBCHEM_BOND_DEF_STEREO_COUNT>
0

> <PUBCHEM_BOND_UDEF_STEREO_COUNT>
0

> <PUBCHEM_ISOTOPIC_ATOM_COUNT>
0

> <PUBCHEM_COMPONENT_COUNT>
1

> <PUBCHEM_CACTVS_TAUTO_COUNT>
25

> <PUBCHEM_CONFORMER_ID>
0327B6ED00000001

> <PUBCHEM_MMFF94_ENERGY>
76.2802

> <PUBCHEM_FEATURE_SELFOVERLAP>
55.935

> <PUBCHEM_SHAPE_FINGERPRINT>
10439779 11 18189342440555064789
10763959 59 18342464733891570844
12107183 9 18261381214378188890
12422481 6 16878217580746694327
12633257 1 17678442268692197042
12661589 4 9439112135400321212
12969540 114 16415202338237972778
13782708 43 12324247183009592169
13911987 19 16487255508032168755
14251751 18 8502387598326563332
14251764 30 8214145161658595719
14739800 52 18338507548097777203
14951699 99 18187652452654879556
15082195 135 16414633740418122377
15475509 35 11674886605865263628
15510800 12 11747199252605315616
15840311 113 18187643553714399467
16067690 210 17748820821922103209
17980427 23 18113614633627158639
20511986 3 18114732751775868943
20567600 247 10015588319879473908
20642791 268 17460033096996720822
20691028 202 18268712719474297305
20715895 44 18411135814329691016
21033648 29 18408605876929460930
21304253 335 18186806867793362079
21304303 94 12679453188648726396
21315764 268 18189050898169405861
21475661 188 18341325686799847272
21641784 216 16056607516970050731
22122407 14 18117563040244263192
23559900 14 18270976634910637814
2748736 6 18410003330523053729
2838139 119 18130217280939439792
33382 64 10737287926629530214
3459 39 18262501612273766665
3472631 163 18413108342658896567
34797466 226 17846220995713055965
3680242 22 18259982648119144624
392239 28 17968081036964999804
44249763 50 17631717396029067979
44802255 64 17342673476732852012
5104073 3 17676769859133630715
5109719 28 18338248136769168097
58260988 393 18127122206867927215
5951187 136 18127138476477506509
653340 110 17972597684788191333
9849439 229 18260839214990309279

> <PUBCHEM_SHAPE_MULTIPOLES>
560.16
16.64
3.6
1.88
13.26
2.11
1.3
16.69
-4.32
0.51
0.24
-3.37
-0.4
-0.1

> <PUBCHEM_SHAPE_SELFOVERLAP>
1241.721

> <PUBCHEM_SHAPE_VOLUME>
301.6

> <PUBCHEM_COORDINATE_TYPE>
2
5
10

$$$$
57394243
  -OEChem-05102415093D

 61 65  0     0  0  0  0  0  0999 V2000
    1.9417   -1.6580    1.8830 O   0  0  0  0  0  0  0  0  0  0  0  0
    6.2869   -2.6953   -0.5800 O   0  0  0  0  0  0  0  0  0  0  0  0
    0.0656    3.3901   -0.0935 N   0  0  0  0  0  0  0  0  0  0  0  0
    2.1365    0.4529    0.8500 N   0  0  0  0  0  0  0  0  0  0  0  0
   -1.0085   -0.6473    1.1576 N   0  0  0  0  0  0  0  0  0  0  0  0
   -3.3559   -0.8006    0.6387 N   0  0  0  0  0  0  0  0  0  0  0  0
   -7.4338   -0.4480    0.9309 N   0  0  0  0  0  0  0  0  0  0  0  0
   -7.8644   -1.0171   -0.2079 N   0  0  0  0  0  0  0  0  0  0  0  0
   -0.4144    4.5711    0.6232 C   0  0  0  0  0  0  0  0  0  0  0  0
   -1.1121    2.8561   -0.7772 C   0  0  0  0  0  0  0  0  0  0  0  0
   -1.3328    5.2353   -0.3919 C   0  0  0  0  0  0  0  0  0  0  0  0
   -1.7940    4.1076   -1.3100 C   0  0  0  0  0  0  0  0  0  0  0  0
    0.6831    2.4150    0.7931 C   0  0  0  0  0  0  0  0  0  0  0  0
    1.5249    1.4316   -0.0069 C   0  0  0  0  0  0  0  0  0  0  0  0
    3.4614    0.7868    1.3832 C   0  0  0  0  0  0  0  0  0  0  0  0
    1.4953   -0.7664    1.1620 C   0  0  0  0  0  0  0  0  0  0  0  0
    0.1727   -1.0123    0.5656 C   0  0  0  0  0  0  0  0  0  0  0  0
    4.5636    0.3607    0.4570 C   0  0  0  0  0  0  0  0  0  0  0  0
   -0.1211   -1.6220   -0.6350 C   0  0  0  0  0  0  0  0  0  0  0  0
   -1.5338   -1.6269   -0.7793 C   0  0  0  0  0  0  0  0  0  0  0  0
   -2.0569   -1.0123    0.3546 C   0  0  0  0  0  0  0  0  0  0  0  0
    4.9172   -0.9856    0.3668 C   0  0  0  0  0  0  0  0  0  0  0  0
    5.2346    1.3112   -0.3127 C   0  0  0  0  0  0  0  0  0  0  0  0
   -2.4450   -2.0831   -1.7453 C   0  0  0  0  0  0  0  0  0  0  0  0
    5.9415   -1.3817   -0.4932 C   0  0  0  0  0  0  0  0  0  0  0  0
    6.2591    0.9152   -1.1725 C   0  0  0  0  0  0  0  0  0  0  0  0
   -4.1876   -1.2598   -0.3252 C   0  0  0  0  0  0  0  0  0  0  0  0
   -3.8034   -1.8890   -1.5016 C   0  0  0  0  0  0  0  0  0  0  0  0
    6.6125   -0.4312   -1.2630 C   0  0  0  0  0  0  0  0  0  0  0  0
   -5.5852   -1.0541   -0.0621 C   0  0  0  0  0  0  0  0  0  0  0  0
   -6.0766   -0.4447    1.0665 C   0  0  0  0  0  0  0  0  0  0  0  0
   -6.7306   -1.3854   -0.8103 C   0  0  0  0  0  0  0  0  0  0  0  0
    5.5594   -3.6129    0.2354 C   0  0  0  0  0  0  0  0  0  0  0  0
   -0.9872    4.2961    1.5184 H   0  0  0  0  0  0  0  0  0  0  0  0
    0.4028    5.2355    0.9213 H   0  0  0  0  0  0  0  0  0  0  0  0
   -0.8565    2.1720   -1.5921 H   0  0  0  0  0  0  0  0  0  0  0  0
   -1.7880    2.3378   -0.0850 H   0  0  0  0  0  0  0  0  0  0  0  0
   -0.7894    5.9886   -0.9744 H   0  0  0  0  0  0  0  0  0  0  0  0
   -2.1774    5.7326    0.0956 H   0  0  0  0  0  0  0  0  0  0  0  0
   -2.8837    4.0027   -1.3072 H   0  0  0  0  0  0  0  0  0  0  0  0
   -1.4787    4.3154   -2.3393 H   0  0  0  0  0  0  0  0  0  0  0  0
    1.3540    2.9382    1.4877 H   0  0  0  0  0  0  0  0  0  0  0  0
   -0.0579    1.9114    1.4235 H   0  0  0  0  0  0  0  0  0  0  0  0
    0.9259    0.9373   -0.7757 H   0  0  0  0  0  0  0  0  0  0  0  0
    2.3109    1.9673   -0.5536 H   0  0  0  0  0  0  0  0  0  0  0  0
    3.5914    0.2743    2.3446 H   0  0  0  0  0  0  0  0  0  0  0  0
    3.5064    1.8605    1.5997 H   0  0  0  0  0  0  0  0  0  0  0  0
    0.6030   -2.0197   -1.3334 H   0  0  0  0  0  0  0  0  0  0  0  0
   -1.0969   -0.1833    2.0510 H   0  0  0  0  0  0  0  0  0  0  0  0
    4.3768   -1.6835    0.9948 H   0  0  0  0  0  0  0  0  0  0  0  0
    4.9691    2.3633   -0.2526 H   0  0  0  0  0  0  0  0  0  0  0  0
   -2.1090   -2.5715   -2.6543 H   0  0  0  0  0  0  0  0  0  0  0  0
    6.7814    1.6551   -1.7719 H   0  0  0  0  0  0  0  0  0  0  0  0
   -4.5172   -2.2374   -2.2412 H   0  0  0  0  0  0  0  0  0  0  0  0
    7.4114   -0.7335   -1.9346 H   0  0  0  0  0  0  0  0  0  0  0  0
   -5.6069   -0.0147    1.9407 H   0  0  0  0  0  0  0  0  0  0  0  0
   -6.8026   -1.8790   -1.7692 H   0  0  0  0  0  0  0  0  0  0  0  0
    5.9622   -4.6113    0.0358 H   0  0  0  0  0  0  0  0  0  0  0  0
    4.4979   -3.6378   -0.0341 H   0  0  0  0  0  0  0  0  0  0  0  0
    5.7137   -3.4141    1.3014 H   0  0  0  0  0  0  0  0  0  0  0  0
   -8.1236   -0.0804    1.5743 H   0  0  0  0  0  0  0  0  0  0  0  0
  1 16  2  0  0  0  0
  2 25  1  0  0  0  0
  2 33  1  0  0  0  0
  3  9  1  0  0  0  0
  3 10  1  0  0  0  0
  3 13  1  0  0  0  0
  4 14  1  0  0  0  0
  4 15  1  0  0  0  0
  4 16  1  0  0  0  0
  5 17  1  0  0  0  0
  5 21  1  0  0  0  0
  5 49  1  0  0  0  0
  6 21  1  0  0  0  0
  6 27  2  0  0  0  0
  7  8  1  0  0  0  0
  7 31  1  0  0  0  0
  7 61  1  0  0  0  0
  8 32  2  0  0  0  0
  9 11  1  0  0  0  0
  9 34  1  0  0  0  0
  9 35  1  0  0  0  0
 10 12  1  0  0  0  0
 10 36  1  0  0  0  0
 10 37  1  0  0  0  0
 11 12  1  0  0  0  0
 11 38  1  0  0  0  0
 11 39  1  0  0  0  0
 12 40  1  0  0  0  0
 12 41  1  0  0  0  0
 13 14  1  0  0  0  0
 13 42  1  0  0  0  0
 13 43  1  0  0  0  0
 14 44  1  0  0  0  0
 14 45  1  0  0  0  0
 15 18  1  0  0  0  0
 15 46  1  0  0  0  0
 15 47  1  0  0  0  0
 16 17  1  0  0  0  0
 17 19  2  0  0  0  0
 18 22  2  0  0  0  0
 18 23  1  0  0  0  0
 19 20  1  0  0  0  0
 19 48  1  0  0  0  0
 20 21  2  0  0  0  0
 20 24  1  0  0  0  0
 22 25  1  0  0  0  0
 22 50  1  0  0  0  0
 23 26  2  0  0  0  0
 23 51  1  0  0  0  0
 24 28  2  0  0  0  0
 24 52  1  0  0  0  0
 25 29  2  0  0  0  0
 26 29  1  0  0  0  0
 26 53  1  0  0  0  0
 27 28  1  0  0  0  0
 27 30  1  0  0  0  0
 28 54  1  0  0  0  0
 29 55  1  0  0  0  0
 30 31  2  0  0  0  0
 30 32  1  0  0  0  0
 31 56  1  0  0  0  0
 32 57  1  0  0  0  0
 33 58  1  0  0  0  0
 33 59  1  0  0  0  0
 33 60  1  0  0  0  0
M  END
> <PUBCHEM_COMPOUND_CID>
57394243

> <PUBCHEM_CONFORMER_RMSD>
1

> <PUBCHEM_CONFORMER_DIVERSEORDER>
1
116
173
142
10
103
164
65
39
139
66
93
28
75
32
86
153
77
95
62
147
99
13
63
68
96
162
137
174
154
54
98
33
108
76
112
91
38
22
141
148
122
29
67
163
114
127
50
42
47
152
97
111
24
157
124
80
145
130
27
14
113
40
79
60
143
53
161
30
88
45
58
172
123
20
71
25
105
135
19
117
59
100
121
136
156
132
150
78
126
87
18
34
167
140
85
92
160
49
55
70
177
16
64
83
17
118
165
90
125
36
26
73
138
146
57
166
155
61
9
149
84
131
175
43
15
21
128
8
144
106
102
134
82
4
151
81
41
119
101
35
120
56
69
31
48
23
158
94
74
11
109
72
133
89
5
104
52
44
159
3
129
46
12
115
170
6
37
51
169
7
110
2
168
176
107
171

> <PUBCHEM_MMFF94_PARTIAL_CHARGES>
41
1 -0.57
10 0.27
13 0.27
14 0.3
15 0.44
16 0.71
17 -0.24
18 -0.14
19 -0.15
2 -0.36
21 0.11
22 -0.15
23 -0.15
24 -0.15
25 0.08
26 -0.15
27 0.36
28 -0.15
29 -0.15
3 -0.81
30 -0.05
31 -0.3
32 0.14
33 0.28
4 -0.66
48 0.15
49 0.27
5 0.03
50 0.15
51 0.15
52 0.15
53 0.15
54 0.15
55 0.15
56 0.15
57 0.15
6 -0.57
61 0.27
7 0.3
8 -0.71
9 0.27

> <PUBCHEM_EFFECTIVE_ROTOR_COUNT>
10

> <PUBCHEM_PHARMACOPHORE_FEATURES>
13
1 1 acceptor
1 2 acceptor
1 3 cation
1 5 cation
1 5 donor
1 6 acceptor
1 7 donor
1 8 acceptor
5 3 9 10 11 12 rings
5 5 17 19 20 21 rings
5 7 8 30 31 32 rings
6 18 22 23 25 26 29 rings
6 6 20 21 24 27 28 rings

> <PUBCHEM_HEAVY_ATOM_COUNT>
33

> <PUBCHEM_ATOM_DEF_STEREO_COUNT>
0

> <PUBCHEM_ATOM_UDEF_STEREO_COUNT>
0

> <PUBCHEM_BOND_DEF_STEREO_COUNT>
0

> <PUBCHEM_BOND_UDEF_STEREO_COUNT>
0

> <PUBCHEM_ISOTOPIC_ATOM_COUNT>
0

> <PUBCHEM_COMPONENT_COUNT>
1

> <PUBCHEM_CACTVS_TAUTO_COUNT>
25

> <PUBCHEM_CONFORMER_ID>
036BC44300000001

> <PUBCHEM_MMFF94_ENERGY>
78.4391

> <PUBCHEM_FEATURE_SELFOVERLAP>
66.086

> <PUBCHEM_SHAPE_FINGERPRINT>
10190108 129 18189064117978191771
10319688 67 8213862510140772236
10675989 125 18190462856379474716
10940486 97 17916019251811382431
11331351 85 18202565103287883961
11796584 16 16916787456881376622
11991303 11 17827914031704245677
12166972 35 18059011812940121169
12788726 201 18261386750538350584
13540713 5 17752197289571546874
13590594 115 18410012161218667513
13617811 41 18334294297276954604
14117953 113 18342737417313157765
14118638 360 18187651267992575902
14347332 77 18339077086873934346
14681490 219 18408602565451308898
14955137 171 18337113470670296531
15183329 4 17632303388366331970
15198563 99 18335987475747615076
15276724 80 18411422817188112164
15439362 3 17977946018477902033
15444296 9 17917158203980951790
15475509 8 18271812353603755095
15721738 202 17385441041950619964
15840311 113 17917144031274689785
15849732 13 18201440324224665047
15968369 153 18198599121432722589
16067689 391 17770763629289771238
16628084 112 18338798897078466702
18335252 114 18339631335492431847
19611394 137 18115884060820219667
21285901 2 18131362881856020910
21641784 216 17894631431347635372
21987440 362 16269988592470683985
221357 26 18409448090235882128
23559900 14 16558461019224150747
23569943 247 18341611447738370435
23576562 1 18193263312690047583
24771293 8 17983278611534116376
24771750 20 17321841093433708012
3004659 81 17275108362219525618
3103668 31 18263075531690336997
34797466 226 16588027926783716702
4144715 1 17972883837358378987
4340502 62 9151181956066170096
513202 73 18338239241179708650
7164475 11 18410289186883085104

> <PUBCHEM_SHAPE_MULTIPOLES>
637.5
17.88
5.08
1.38
5.42
8.59
0.04
-14.11
2.42
0.06
1.08
0.02
-0.21
-0.31

> <PUBCHEM_SHAPE_SELFOVERLAP>
1393.945

> <PUBCHEM_SHAPE_VOLUME>
347.9

> <PUBCHEM_COORDINATE_TYPE>
2
5
10

$$$$
52934146
  -OEChem-05102415093D

 54 58  0     0  0  0  0  0  0999 V2000
   -1.2233    2.7314    0.9509 O   0  0  0  0  0  0  0  0  0  0  0  0
   -7.8123   -0.9018    0.0528 O   0  0  0  0  0  0  0  0  0  0  0  0
    1.1256   -1.1248    0.3490 N   0  0  0  0  0  0  0  0  0  0  0  0
   -2.5137    0.8170    1.1679 N   0  0  0  0  0  0  0  0  0  0  0  0
    7.3958    2.1030   -0.4649 N   0  0  0  0  0  0  0  0  0  0  0  0
    7.4555    0.9802   -1.2010 N   0  0  0  0  0  0  0  0  0  0  0  0
    1.9668   -0.0434    0.2150 C   0  0  0  0  0  0  0  0  0  0  0  0
    1.1962    1.1039    0.4154 C   0  0  0  0  0  0  0  0  0  0  0  0
   -0.1352    0.6729    0.6736 C   0  0  0  0  0  0  0  0  0  0  0  0
   -0.1467   -0.7021    0.6264 C   0  0  0  0  0  0  0  0  0  0  0  0
    3.3369    0.0066   -0.0654 C   0  0  0  0  0  0  0  0  0  0  0  0
    3.9354    1.2674   -0.1430 C   0  0  0  0  0  0  0  0  0  0  0  0
    1.8214    2.3639    0.3324 C   0  0  0  0  0  0  0  0  0  0  0  0
    1.4941   -2.4670    0.2242 C   0  0  0  0  0  0  0  0  0  0  0  0
    3.1912    2.4293    0.0525 C   0  0  0  0  0  0  0  0  0  0  0  0
   -1.2918    1.4798    0.9406 C   0  0  0  0  0  0  0  0  0  0  0  0
    5.3404    1.3646   -0.4290 C   0  0  0  0  0  0  0  0  0  0  0  0
    0.5694   -3.4042   -0.2366 C   0  0  0  0  0  0  0  0  0  0  0  0
    2.7862   -2.8697    0.5618 C   0  0  0  0  0  0  0  0  0  0  0  0
   -3.7672    1.4881    1.4268 C   0  0  0  0  0  0  0  0  0  0  0  0
   -4.8063    1.1551    0.3955 C   0  0  0  0  0  0  0  0  0  0  0  0
    6.1513    2.3781    0.0209 C   0  0  0  0  0  0  0  0  0  0  0  0
    6.1971    0.5336   -1.1756 C   0  0  0  0  0  0  0  0  0  0  0  0
    0.9369   -4.7442   -0.3599 C   0  0  0  0  0  0  0  0  0  0  0  0
    3.1536   -4.2098    0.4385 C   0  0  0  0  0  0  0  0  0  0  0  0
    2.2290   -5.1469   -0.0227 C   0  0  0  0  0  0  0  0  0  0  0  0
   -5.8397    0.2714    0.7069 C   0  0  0  0  0  0  0  0  0  0  0  0
   -4.7380    1.7287   -0.8743 C   0  0  0  0  0  0  0  0  0  0  0  0
   -6.8048   -0.0387   -0.2513 C   0  0  0  0  0  0  0  0  0  0  0  0
   -5.7029    1.4184   -1.8326 C   0  0  0  0  0  0  0  0  0  0  0  0
   -6.7366    0.5350   -1.5211 C   0  0  0  0  0  0  0  0  0  0  0  0
   -8.7645   -1.1756   -0.9741 C   0  0  0  0  0  0  0  0  0  0  0  0
   -0.9494   -1.4084    0.7905 H   0  0  0  0  0  0  0  0  0  0  0  0
    3.9260   -0.8661   -0.3110 H   0  0  0  0  0  0  0  0  0  0  0  0
    1.2632    3.2839    0.4777 H   0  0  0  0  0  0  0  0  0  0  0  0
    3.6420    3.4166   -0.0192 H   0  0  0  0  0  0  0  0  0  0  0  0
   -2.5456   -0.1963    1.1690 H   0  0  0  0  0  0  0  0  0  0  0  0
   -0.4388   -3.1278   -0.5326 H   0  0  0  0  0  0  0  0  0  0  0  0
    3.5035   -2.2269    1.0587 H   0  0  0  0  0  0  0  0  0  0  0  0
   -4.0941    1.1728    2.4242 H   0  0  0  0  0  0  0  0  0  0  0  0
   -3.6226    2.5732    1.4712 H   0  0  0  0  0  0  0  0  0  0  0  0
    5.9770    3.2512    0.6346 H   0  0  0  0  0  0  0  0  0  0  0  0
    5.9650   -0.3782   -1.7079 H   0  0  0  0  0  0  0  0  0  0  0  0
    0.2185   -5.4737   -0.7224 H   0  0  0  0  0  0  0  0  0  0  0  0
    4.1493   -4.5301    0.7316 H   0  0  0  0  0  0  0  0  0  0  0  0
    2.5132   -6.1913   -0.1127 H   0  0  0  0  0  0  0  0  0  0  0  0
   -5.8991   -0.1817    1.6935 H   0  0  0  0  0  0  0  0  0  0  0  0
   -3.9375    2.4186   -1.1281 H   0  0  0  0  0  0  0  0  0  0  0  0
    8.2465    2.6354   -0.3318 H   0  0  0  0  0  0  0  0  0  0  0  0
   -5.6487    1.8655   -2.8210 H   0  0  0  0  0  0  0  0  0  0  0  0
   -7.4521    0.3382   -2.3121 H   0  0  0  0  0  0  0  0  0  0  0  0
   -9.3180   -0.2747   -1.2601 H   0  0  0  0  0  0  0  0  0  0  0  0
   -8.2981   -1.6671   -1.8346 H   0  0  0  0  0  0  0  0  0  0  0  0
   -9.4930   -1.8802   -0.5597 H   0  0  0  0  0  0  0  0  0  0  0  0
  1 16  2  0  0  0  0
  2 29  1  0  0  0  0
  2 32  1  0  0  0  0
  3  7  1  0  0  0  0
  3 10  1  0  0  0  0
  3 14  1  0  0  0  0
  4 16  1  0  0  0  0
  4 20  1  0  0  0  0
  4 37  1  0  0  0  0
  5  6  1  0  0  0  0
  5 22  1  0  0  0  0
  5 49  1  0  0  0  0
  6 23  2  0  0  0  0
  7  8  2  0  0  0  0
  7 11  1  0  0  0  0
  8  9  1  0  0  0  0
  8 13  1  0  0  0  0
  9 10  2  0  0  0  0
  9 16  1  0  0  0  0
 10 33  1  0  0  0  0
 11 12  2  0  0  0  0
 11 34  1  0  0  0  0
 12 15  1  0  0  0  0
 12 17  1  0  0  0  0
 13 15  2  0  0  0  0
 13 35  1  0  0  0  0
 14 18  2  0  0  0  0
 14 19  1  0  0  0  0
 15 36  1  0  0  0  0
 17 22  2  0  0  0  0
 17 23  1  0  0  0  0
 18 24  1  0  0  0  0
 18 38  1  0  0  0  0
 19 25  2  0  0  0  0
 19 39  1  0  0  0  0
 20 21  1  0  0  0  0
 20 40  1  0  0  0  0
 20 41  1  0  0  0  0
 21 27  2  0  0  0  0
 21 28  1  0  0  0  0
 22 42  1  0  0  0  0
 23 43  1  0  0  0  0
 24 26  2  0  0  0  0
 24 44  1  0  0  0  0
 25 26  1  0  0  0  0
 25 45  1  0  0  0  0
 26 46  1  0  0  0  0
 27 29  1  0  0  0  0
 27 47  1  0  0  0  0
 28 30  2  0  0  0  0
 28 48  1  0  0  0  0
 29 31  2  0  0  0  0
 30 31  1  0  0  0  0
 30 50  1  0  0  0  0
 31 51  1  0  0  0  0
 32 52  1  0  0  0  0
 32 53  1  0  0  0  0
 32 54  1  0  0  0  0
M  END
> <PUBCHEM_COMPOUND_CID>
52934146

> <PUBCHEM_CONFORMER_RMSD>
1

> <PUBCHEM_CONFORMER_DIVERSEORDER>
19
18
32
27
31
26
28
42
34
13
36
40
30
24
17
29
1
35
38
23
4
37
14
8
39
12
5
41
11
9
3
44
43
20
21
6
10
25
15
33
7
22
2
16

> <PUBCHEM_MMFF94_PARTIAL_CHARGES>
48
1 -0.57
10 -0.3
11 -0.15
12 0.05
13 -0.15
14 -0.02
15 -0.15
16 0.72
17 -0.05
18 -0.15
19 -0.15
2 -0.36
20 0.44
21 -0.14
22 -0.3
23 0.14
24 -0.15
25 -0.15
26 -0.15
27 -0.15
28 -0.15
29 0.08
3 0.33
30 -0.15
31 -0.15
32 0.28
33 0.15
34 0.15
35 0.15
36 0.15
37 0.37
38 0.15
39 0.15
4 -0.73
42 0.15
43 0.15
44 0.15
45 0.15
46 0.15
47 0.15
48 0.15
49 0.27
5 0.3
50 0.15
51 0.15
6 -0.71
7 -0.15
9 -0.09

> <PUBCHEM_EFFECTIVE_ROTOR_COUNT>
7

> <PUBCHEM_PHARMACOPHORE_FEATURES>
11
1 1 acceptor
1 2 acceptor
1 3 cation
1 4 donor
1 5 donor
1 6 acceptor
5 3 7 8 9 10 rings
5 5 6 17 22 23 rings
6 14 18 19 24 25 26 rings
6 21 27 28 29 30 31 rings
6 7 8 11 12 13 15 rings

> <PUBCHEM_HEAVY_ATOM_COUNT>
32

> <PUBCHEM_ATOM_DEF_STEREO_COUNT>
0

> <PUBCHEM_ATOM_UDEF_STEREO_COUNT>
0

> <PUBCHEM_BOND_DEF_STEREO_COUNT>
0

> <PUBCHEM_BOND_UDEF_STEREO_COUNT>
0

> <PUBCHEM_ISOTOPIC_ATOM_COUNT>
0

> <PUBCHEM_COMPONENT_COUNT>
1

> <PUBCHEM_CACTVS_TAUTO_COUNT>
2

> <PUBCHEM_CONFORMER_ID>
0327B60200000013

> <PUBCHEM_MMFF94_ENERGY>
98.4742

> <PUBCHEM_FEATURE_SELFOVERLAP>
55.915

> <PUBCHEM_SHAPE_FINGERPRINT>
10050765 1 18122347874203756953
102385 1 17832426397903328480
10595046 47 18341332198255403473
10622 236 18057028113881227123
10693767 8 17986682476374675158
11135609 187 18409443700579170284
11135926 11 18411145740410399833
11136131 41 18261386694604036386
11434127 23 17967247607852544517
11443803 9 18334848468459388720
11719270 70 18410004429970995138
11991303 11 18116158946646872742
12144603 126 18131078109135932089
12522641 126 18262244296926361590
12977781 61 17459495310829926242
13540713 5 17984993587310975465
13692114 37 18340475777054528082
13911987 19 18336561511058975884
13968360 50 18408040706530487122
14150023 79 18260266339346751594
14767858 380 18272371983600795233
15348495 7 10879697815769459045
15461852 350 15502377872490569937
15705408 1 17977966596150611990
15927050 60 18341615953533239694
16993438 75 18046068422072375291
17852330 134 18048308947506926029
18365409 1 18196656409093274182
19304144 158 18041548175040742253
19319366 153 18272078448650926957
21344244 181 17775015578684061614
21344244 246 18410858720488783670
21521239 73 18130795538325128780
23569917 315 18342743975444044358
23576562 1 17825403026946988300
3103668 31 18050009097073113335
335352 9 18411429423665367596
4017518 198 18340218462075784094
404807 78 18117001185760703683
46194498 28 18116703020097637719
484989 97 18196378236945959105
563151 97 18341061709309605640
57634706 280 17845076536904719240
5912855 24 18128541458079722561
59755656 215 18409171008578516868
6058803 2 17840881676205476241
6376802 90 17894633609307140433
6669772 16 18342185445111626214

> <PUBCHEM_SHAPE_MULTIPOLES>
626.88
20.53
5.18
1.18
27.03
9.5
-0.21
-9.25
-9.07
-7.63
0.12
1.25
-0.45
-1

> <PUBCHEM_SHAPE_SELFOVERLAP>
1401.615

> <PUBCHEM_SHAPE_VOLUME>
335.1

> <PUBCHEM_COORDINATE_TYPE>
2
5
10

$$$$
52935059
  -OEChem-05102415093D

 64 67  0     0  0  0  0  0  0999 V2000
    1.8954   -0.1205    2.5800 O   0  0  0  0  0  0  0  0  0  0  0  0
    4.1396   -3.9353    0.1205 O   0  0  0  0  0  0  0  0  0  0  0  0
    2.2553    1.0976    0.6177 N   0  0  0  0  0  0  0  0  0  0  0  0
   -1.9746    1.6764    1.9178 N   0  0  0  0  0  0  0  0  0  0  0  0
   -0.2571    3.8721   -1.6817 N   0  0  0  0  0  0  0  0  0  0  0  0
   -6.5681   -1.9789   -1.3303 N   0  0  0  0  0  0  0  0  0  0  0  0
   -6.1292   -3.2479   -1.2733 N   0  0  0  0  0  0  0  0  0  0  0  0
    1.7062    1.8819   -0.4865 C   0  0  0  0  0  0  0  0  0  0  0  0
    0.0150    0.7501    1.5858 C   0  0  0  0  0  0  0  0  0  0  0  0
    1.6412    3.3746   -0.1690 C   0  0  0  0  0  0  0  0  0  0  0  0
   -0.9667   -0.0675    0.9590 C   0  0  0  0  0  0  0  0  0  0  0  0
   -2.2061    0.5361    1.1821 C   0  0  0  0  0  0  0  0  0  0  0  0
    1.4354    0.5498    1.6344 C   0  0  0  0  0  0  0  0  0  0  0  0
    3.7000    0.9159    0.6045 C   0  0  0  0  0  0  0  0  0  0  0  0
    1.1038    4.2414   -1.3112 C   0  0  0  0  0  0  0  0  0  0  0  0
   -0.6355    1.8142    2.1669 C   0  0  0  0  0  0  0  0  0  0  0  0
   -3.4054   -0.0017    0.7019 C   0  0  0  0  0  0  0  0  0  0  0  0
   -0.9195   -1.2667    0.2207 C   0  0  0  0  0  0  0  0  0  0  0  0
    4.1075   -0.2903   -0.1911 C   0  0  0  0  0  0  0  0  0  0  0  0
   -3.3340   -1.1917   -0.0277 C   0  0  0  0  0  0  0  0  0  0  0  0
   -2.1113   -1.8162   -0.2659 C   0  0  0  0  0  0  0  0  0  0  0  0
   -2.9876    2.6056    2.3702 C   0  0  0  0  0  0  0  0  0  0  0  0
   -4.5417   -1.7784   -0.5399 C   0  0  0  0  0  0  0  0  0  0  0  0
    3.9315   -1.5681    0.3401 C   0  0  0  0  0  0  0  0  0  0  0  0
    4.6625   -0.1334   -1.4612 C   0  0  0  0  0  0  0  0  0  0  0  0
   -0.5782    4.3649   -3.0224 C   0  0  0  0  0  0  0  0  0  0  0  0
   -1.2166    4.3928   -0.7062 C   0  0  0  0  0  0  0  0  0  0  0  0
    4.3105   -2.6890   -0.3987 C   0  0  0  0  0  0  0  0  0  0  0  0
    5.0418   -1.2541   -2.2000 C   0  0  0  0  0  0  0  0  0  0  0  0
   -5.6551   -1.0603   -0.9022 C   0  0  0  0  0  0  0  0  0  0  0  0
   -4.8909   -3.1191   -0.7897 C   0  0  0  0  0  0  0  0  0  0  0  0
    4.8656   -2.5320   -1.6689 C   0  0  0  0  0  0  0  0  0  0  0  0
    3.5664   -4.0224    1.4243 C   0  0  0  0  0  0  0  0  0  0  0  0
    0.7090    1.5091   -0.7358 H   0  0  0  0  0  0  0  0  0  0  0  0
    2.3189    1.7151   -1.3797 H   0  0  0  0  0  0  0  0  0  0  0  0
    2.6562    3.7254    0.0604 H   0  0  0  0  0  0  0  0  0  0  0  0
    1.0725    3.5504    0.7487 H   0  0  0  0  0  0  0  0  0  0  0  0
    4.1794    1.8277    0.2290 H   0  0  0  0  0  0  0  0  0  0  0  0
    4.0528    0.7917    1.6360 H   0  0  0  0  0  0  0  0  0  0  0  0
    1.1762    5.3036   -1.0437 H   0  0  0  0  0  0  0  0  0  0  0  0
    1.7779    4.0933   -2.1656 H   0  0  0  0  0  0  0  0  0  0  0  0
   -0.2558    2.6520    2.7370 H   0  0  0  0  0  0  0  0  0  0  0  0
   -4.3466    0.4965    0.9119 H   0  0  0  0  0  0  0  0  0  0  0  0
    0.0267   -1.7637    0.0256 H   0  0  0  0  0  0  0  0  0  0  0  0
   -2.0511   -2.7390   -0.8390 H   0  0  0  0  0  0  0  0  0  0  0  0
   -2.5148    3.4312    2.9083 H   0  0  0  0  0  0  0  0  0  0  0  0
   -3.6715    2.0725    3.0353 H   0  0  0  0  0  0  0  0  0  0  0  0
   -3.5178    2.9911    1.4956 H   0  0  0  0  0  0  0  0  0  0  0  0
    3.5114   -1.6391    1.3357 H   0  0  0  0  0  0  0  0  0  0  0  0
    4.8050    0.8561   -1.8874 H   0  0  0  0  0  0  0  0  0  0  0  0
   -1.5938    4.0686   -3.3079 H   0  0  0  0  0  0  0  0  0  0  0  0
   -0.5047    5.4564   -3.0900 H   0  0  0  0  0  0  0  0  0  0  0  0
    0.0950    3.9253   -3.7668 H   0  0  0  0  0  0  0  0  0  0  0  0
   -1.2120    5.4885   -0.6672 H   0  0  0  0  0  0  0  0  0  0  0  0
   -2.2311    4.0667   -0.9628 H   0  0  0  0  0  0  0  0  0  0  0  0
   -1.0218    4.0177    0.3002 H   0  0  0  0  0  0  0  0  0  0  0  0
    5.4739   -1.1320   -3.1889 H   0  0  0  0  0  0  0  0  0  0  0  0
   -5.8880   -0.0043   -0.9074 H   0  0  0  0  0  0  0  0  0  0  0  0
    5.1629   -3.4012   -2.2491 H   0  0  0  0  0  0  0  0  0  0  0  0
   -4.3019   -4.0131   -0.6395 H   0  0  0  0  0  0  0  0  0  0  0  0
   -7.5049   -1.8102   -1.6749 H   0  0  0  0  0  0  0  0  0  0  0  0
    4.2089   -3.5557    2.1787 H   0  0  0  0  0  0  0  0  0  0  0  0
    2.5456   -3.6251    1.4433 H   0  0  0  0  0  0  0  0  0  0  0  0
    3.4990   -5.0857    1.6768 H   0  0  0  0  0  0  0  0  0  0  0  0
  1 13  2  0  0  0  0
  2 28  1  0  0  0  0
  2 33  1  0  0  0  0
  3  8  1  0  0  0  0
  3 13  1  0  0  0  0
  3 14  1  0  0  0  0
  4 12  1  0  0  0  0
  4 16  1  0  0  0  0
  4 22  1  0  0  0  0
  5 15  1  0  0  0  0
  5 26  1  0  0  0  0
  5 27  1  0  0  0  0
  6  7  1  0  0  0  0
  6 30  1  0  0  0  0
  6 61  1  0  0  0  0
  7 31  2  0  0  0  0
  8 10  1  0  0  0  0
  8 34  1  0  0  0  0
  8 35  1  0  0  0  0
  9 11  1  0  0  0  0
  9 13  1  0  0  0  0
  9 16  2  0  0  0  0
 10 15  1  0  0  0  0
 10 36  1  0  0  0  0
 10 37  1  0  0  0  0
 11 12  2  0  0  0  0
 11 18  1  0  0  0  0
 12 17  1  0  0  0  0
 14 19  1  0  0  0  0
 14 38  1  0  0  0  0
 14 39  1  0  0  0  0
 15 40  1  0  0  0  0
 15 41  1  0  0  0  0
 16 42  1  0  0  0  0
 17 20  2  0  0  0  0
 17 43  1  0  0  0  0
 18 21  2  0  0  0  0
 18 44  1  0  0  0  0
 19 24  2  0  0  0  0
 19 25  1  0  0  0  0
 20 21  1  0  0  0  0
 20 23  1  0  0  0  0
 21 45  1  0  0  0  0
 22 46  1  0  0  0  0
 22 47  1  0  0  0  0
 22 48  1  0  0  0  0
 23 30  2  0  0  0  0
 23 31  1  0  0  0  0
 24 28  1  0  0  0  0
 24 49  1  0  0  0  0
 25 29  2  0  0  0  0
 25 50  1  0  0  0  0
 26 51  1  0  0  0  0
 26 52  1  0  0  0  0
 26 53  1  0  0  0  0
 27 54  1  0  0  0  0
 27 55  1  0  0  0  0
 27 56  1  0  0  0  0
 28 32  2  0  0  0  0
 29 32  1  0  0  0  0
 29 57  1  0  0  0  0
 30 58  1  0  0  0  0
 31 60  1  0  0  0  0
 32 59  1  0  0  0  0
 33 62  1  0  0  0  0
 33 63  1  0  0  0  0
 33 64  1  0  0  0  0
M  END
> <PUBCHEM_COMPOUND_CID>
52935059

> <PUBCHEM_CONFORMER_RMSD>
1.2

> <PUBCHEM_CONFORMER_DIVERSEORDER>
1
9
112
146
124
29
69
91
154
81
103
172
54
89
67
137
134
152
127
95
98
74
165
43
28
119
72
59
139
169
76
31
78
86
120
85
166
143
157
88
147
97
93
38
176
142
138
64
32
150
23
65
79
144
99
96
175
163
18
110
116
57
15
62
35
34
173
131
77
108
104
151
24
25
153
56
80
106
178
161
8
145
135
51
46
2
7
12
84
82
68
109
53
63
94
117
129
71
3
140
20
33
133
156
123
113
155
92
13
26
48
164
47
70
14
90
167
40
128
179
174
4
141
19
41
17
132
114
111
42
177
55
171
30
136
10
44
126
148
58
122
130
105
11
60
160
102
61
83
16
27
125
5
170
37
49
6
87
52
162
101
21
39
45
115
158
66
50
168
73
149
36
75
107
118
159
100
22
121

> <PUBCHEM_MMFF94_PARTIAL_CHARGES>
42
1 -0.57
12 -0.15
13 0.72
14 0.44
15 0.27
16 -0.3
17 -0.15
18 -0.15
19 -0.14
2 -0.36
20 0.05
21 -0.15
22 0.26
23 -0.05
24 -0.15
25 -0.15
26 0.27
27 0.27
28 0.08
29 -0.15
3 -0.66
30 -0.3
31 0.14
32 -0.15
33 0.28
4 0.05
42 0.15
43 0.15
44 0.15
45 0.15
49 0.15
5 -0.81
50 0.15
57 0.15
58 0.15
59 0.15
6 0.3
60 0.15
61 0.27
7 -0.71
8 0.3
9 -0.09

> <PUBCHEM_EFFECTIVE_ROTOR_COUNT>
10

> <PUBCHEM_PHARMACOPHORE_FEATURES>
10
1 1 acceptor
1 2 acceptor
1 4 cation
1 5 cation
1 6 donor
1 7 acceptor
5 4 9 11 12 16 rings
5 6 7 23 30 31 rings
6 11 12 17 18 20 21 rings
6 19 24 25 28 29 32 rings

> <PUBCHEM_HEAVY_ATOM_COUNT>
33

> <PUBCHEM_ATOM_DEF_STEREO_COUNT>
0

> <PUBCHEM_ATOM_UDEF_STEREO_COUNT>
0

> <PUBCHEM_BOND_DEF_STEREO_COUNT>
0

> <PUBCHEM_BOND_UDEF_STEREO_COUNT>
0

> <PUBCHEM_ISOTOPIC_ATOM_COUNT>
0

> <PUBCHEM_COMPONENT_COUNT>
1

> <PUBCHEM_CACTVS_TAUTO_COUNT>
1

> <PUBCHEM_CONFORMER_ID>
0327B99300000001

> <PUBCHEM_MMFF94_ENERGY>
85.0493

> <PUBCHEM_FEATURE_SELFOVERLAP>
50.839

> <PUBCHEM_SHAPE_FINGERPRINT>
10622 236 18269834220701833514
11578080 2 18197484131565673944
11763715 3 17916324881610449329
11796584 16 17702114568974910114
11991303 11 18123759656293007121
12166972 35 18340207505107452231
12422481 6 14764351548305952341
12977781 61 17906133336944572090
131258 38 17415822837612685390
14114206 34 17386017121803979588
14289585 56 18040999480421379621
14347332 77 18272650126073060107
15484559 13 18049162473809971764
15664445 248 18189325943616763600
16628084 112 17973730177791450243
1813 80 18409158939556534297
21344244 181 17474100999701963604
21703447 108 17917140701952342656
21792965 302 18340214081108473790
21987483 16 9223239555617916485
23559900 14 18269270343298765619
25222932 49 16340598386659307821
26353 1 18187096061253837980
3004659 81 18269549601750293075
4017518 198 16032103470544042738
437795 70 18040710351723075941
44880168 125 17697619700805659934
46194498 28 18116986896029489237
5081480 168 17458914846237299741
9831232 110 18193265515872113743

> <PUBCHEM_SHAPE_MULTIPOLES>
642.48
12.18
6.17
2.41
6.3
3.97
-0.05
-16.97
6.3
0.08
3.34
-0.02
1.7
-2.2

> <PUBCHEM_SHAPE_SELFOVERLAP>
1384.957

> <PUBCHEM_SHAPE_VOLUME>
359.1

> <PUBCHEM_COORDINATE_TYPE>
2
5
10

$$$$
57402101
  -OEChem-05102415093D

 61 64  0     0  0  0  0  0  0999 V2000
    1.7442    0.1090    2.5139 O   0  0  0  0  0  0  0  0  0  0  0  0
    3.7173   -4.1098    0.5274 O   0  0  0  0  0  0  0  0  0  0  0  0
    2.2324    1.0783    0.4436 N   0  0  0  0  0  0  0  0  0  0  0  0
   -1.9587    2.1193    1.5697 N   0  0  0  0  0  0  0  0  0  0  0  0
    1.3856    3.9685   -1.7730 N   0  0  0  0  0  0  0  0  0  0  0  0
   -6.8868   -1.7943   -0.7568 N   0  0  0  0  0  0  0  0  0  0  0  0
   -6.3391   -2.5161   -1.7495 N   0  0  0  0  0  0  0  0  0  0  0  0
   -0.0441    1.0113    1.3869 C   0  0  0  0  0  0  0  0  0  0  0  0
   -1.0774    0.2098    0.8256 C   0  0  0  0  0  0  0  0  0  0  0  0
   -2.2682    0.9282    0.9528 C   0  0  0  0  0  0  0  0  0  0  0  0
    1.7660    1.7800   -0.7504 C   0  0  0  0  0  0  0  0  0  0  0  0
    1.3548    0.7078    1.4917 C   0  0  0  0  0  0  0  0  0  0  0  0
    3.6581    0.7847    0.4857 C   0  0  0  0  0  0  0  0  0  0  0  0
   -0.6171    2.1788    1.8360 C   0  0  0  0  0  0  0  0  0  0  0  0
    1.8274    3.2887   -0.5622 C   0  0  0  0  0  0  0  0  0  0  0  0
   -3.4985    0.4366    0.5023 C   0  0  0  0  0  0  0  0  0  0  0  0
   -1.1138   -1.0616    0.2194 C   0  0  0  0  0  0  0  0  0  0  0  0
   -3.5102   -0.8266   -0.0957 C   0  0  0  0  0  0  0  0  0  0  0  0
    3.9811   -0.5278   -0.1678 C   0  0  0  0  0  0  0  0  0  0  0  0
   -2.3374   -1.5660   -0.2360 C   0  0  0  0  0  0  0  0  0  0  0  0
   -2.9016    3.1674    1.8961 C   0  0  0  0  0  0  0  0  0  0  0  0
   -4.7522   -1.3694   -0.5730 C   0  0  0  0  0  0  0  0  0  0  0  0
    3.6951   -1.7237    0.4907 C   0  0  0  0  0  0  0  0  0  0  0  0
    4.5678   -0.5513   -1.4332 C   0  0  0  0  0  0  0  0  0  0  0  0
    1.9014    5.3384   -1.8134 C   0  0  0  0  0  0  0  0  0  0  0  0
   -0.0762    3.9747   -1.8576 C   0  0  0  0  0  0  0  0  0  0  0  0
    3.9957   -2.9433   -0.1160 C   0  0  0  0  0  0  0  0  0  0  0  0
    4.8686   -1.7708   -2.0399 C   0  0  0  0  0  0  0  0  0  0  0  0
   -5.9790   -1.0894   -0.0223 C   0  0  0  0  0  0  0  0  0  0  0  0
   -5.0351   -2.2525   -1.6321 C   0  0  0  0  0  0  0  0  0  0  0  0
    4.5824   -2.9669   -1.3815 C   0  0  0  0  0  0  0  0  0  0  0  0
    3.1175   -4.0119    1.8184 C   0  0  0  0  0  0  0  0  0  0  0  0
    2.3821    1.4742   -1.6045 H   0  0  0  0  0  0  0  0  0  0  0  0
    0.7511    1.4486   -0.9818 H   0  0  0  0  0  0  0  0  0  0  0  0
    3.9824    0.7444    1.5331 H   0  0  0  0  0  0  0  0  0  0  0  0
    4.2165    1.6101    0.0286 H   0  0  0  0  0  0  0  0  0  0  0  0
   -0.1814    3.0409    2.3239 H   0  0  0  0  0  0  0  0  0  0  0  0
    1.2660    3.6204    0.3182 H   0  0  0  0  0  0  0  0  0  0  0  0
    2.8746    3.5478   -0.3558 H   0  0  0  0  0  0  0  0  0  0  0  0
   -4.3960    1.0373    0.6108 H   0  0  0  0  0  0  0  0  0  0  0  0
   -0.2076   -1.6497    0.1040 H   0  0  0  0  0  0  0  0  0  0  0  0
   -2.3436   -2.5522   -0.6955 H   0  0  0  0  0  0  0  0  0  0  0  0
   -3.3602    3.5191    0.9684 H   0  0  0  0  0  0  0  0  0  0  0  0
   -3.6562    2.7550    2.5707 H   0  0  0  0  0  0  0  0  0  0  0  0
   -2.3787    3.9927    2.3860 H   0  0  0  0  0  0  0  0  0  0  0  0
    3.2543   -1.6549    1.4775 H   0  0  0  0  0  0  0  0  0  0  0  0
    4.7959    0.3727   -1.9577 H   0  0  0  0  0  0  0  0  0  0  0  0
    1.5878    5.8410   -2.7352 H   0  0  0  0  0  0  0  0  0  0  0  0
    1.5567    5.9342   -0.9604 H   0  0  0  0  0  0  0  0  0  0  0  0
    2.9972    5.3390   -1.8169 H   0  0  0  0  0  0  0  0  0  0  0  0
   -0.5394    4.4791   -1.0014 H   0  0  0  0  0  0  0  0  0  0  0  0
   -0.4014    4.4893   -2.7693 H   0  0  0  0  0  0  0  0  0  0  0  0
   -0.4848    2.9618   -1.9236 H   0  0  0  0  0  0  0  0  0  0  0  0
    5.3254   -1.7892   -3.0251 H   0  0  0  0  0  0  0  0  0  0  0  0
   -6.2965   -0.4760    0.8098 H   0  0  0  0  0  0  0  0  0  0  0  0
   -4.3519   -2.7169   -2.3294 H   0  0  0  0  0  0  0  0  0  0  0  0
    4.8189   -3.9137   -1.8592 H   0  0  0  0  0  0  0  0  0  0  0  0
   -7.8911   -1.8303   -0.6351 H   0  0  0  0  0  0  0  0  0  0  0  0
    2.9615   -5.0336    2.1799 H   0  0  0  0  0  0  0  0  0  0  0  0
    2.1315   -3.5370    1.7700 H   0  0  0  0  0  0  0  0  0  0  0  0
    3.7827   -3.5183    2.5351 H   0  0  0  0  0  0  0  0  0  0  0  0
  1 12  2  0  0  0  0
  2 27  1  0  0  0  0
  2 32  1  0  0  0  0
  3 11  1  0  0  0  0
  3 12  1  0  0  0  0
  3 13  1  0  0  0  0
  4 10  1  0  0  0  0
  4 14  1  0  0  0  0
  4 21  1  0  0  0  0
  5 15  1  0  0  0  0
  5 25  1  0  0  0  0
  5 26  1  0  0  0  0
  6  7  1  0  0  0  0
  6 29  1  0  0  0  0
  6 58  1  0  0  0  0
  7 30  2  0  0  0  0
  8  9  1  0  0  0  0
  8 12  1  0  0  0  0
  8 14  2  0  0  0  0
  9 10  2  0  0  0  0
  9 17  1  0  0  0  0
 10 16  1  0  0  0  0
 11 15  1  0  0  0  0
 11 33  1  0  0  0  0
 11 34  1  0  0  0  0
 13 19  1  0  0  0  0
 13 35  1  0  0  0  0
 13 36  1  0  0  0  0
 14 37  1  0  0  0  0
 15 38  1  0  0  0  0
 15 39  1  0  0  0  0
 16 18  2  0  0  0  0
 16 40  1  0  0  0  0
 17 20  2  0  0  0  0
 17 41  1  0  0  0  0
 18 20  1  0  0  0  0
 18 22  1  0  0  0  0
 19 23  2  0  0  0  0
 19 24  1  0  0  0  0
 20 42  1  0  0  0  0
 21 43  1  0  0  0  0
 21 44  1  0  0  0  0
 21 45  1  0  0  0  0
 22 29  2  0  0  0  0
 22 30  1  0  0  0  0
 23 27  1  0  0  0  0
 23 46  1  0  0  0  0
 24 28  2  0  0  0  0
 24 47  1  0  0  0  0
 25 48  1  0  0  0  0
 25 49  1  0  0  0  0
 25 50  1  0  0  0  0
 26 51  1  0  0  0  0
 26 52  1  0  0  0  0
 26 53  1  0  0  0  0
 27 31  2  0  0  0  0
 28 31  1  0  0  0  0
 28 54  1  0  0  0  0
 29 55  1  0  0  0  0
 30 56  1  0  0  0  0
 31 57  1  0  0  0  0
 32 59  1  0  0  0  0
 32 60  1  0  0  0  0
 32 61  1  0  0  0  0
M  END
> <PUBCHEM_COMPOUND_CID>
57402101

> <PUBCHEM_CONFORMER_RMSD>
1

> <PUBCHEM_CONFORMER_DIVERSEORDER>
1
173
49
207
138
71
198
19
59
65
41
113
213
232
81
175
197
91
167
84
64
118
38
142
229
141
236
151
52
43
163
131
105
68
97
58
211
55
15
237
256
121
157
203
128
193
255
54
135
183
184
45
20
264
60
182
33
158
63
258
162
137
67
241
103
140
205
93
169
195
239
257
120
179
29
226
6
153
214
170
186
42
201
89
165
233
114
192
109
127
40
46
246
73
102
181
245
72
123
150
230
164
209
171
66
223
25
107
74
28
136
130
86
13
98
206
62
218
50
225
172
148
252
9
200
191
216
21
156
222
143
57
125
270
188
76
119
56
234
90
16
154
11
124
48
104
94
101
152
212
215
149
69
194
115
24
263
271
250
208
161
35
168
160
177
14
224
235
261
99
267
83
238
12
37
36
227
51
31
4
268
202
53
78
159
111
166
61
82
217
47
199
8
139
27
187
92
240
244
34
228
133
155
75
7
242
185
274
266
174
26
144
18
44
96
132
190
145
17
79
269
85
95
248
112
3
204
126
253
10
180
189
260
77
117
108
262
116
178
221
265
39
147
254
70
87
100
196
88
176
32
243
249
110
22
134
259
80
2
5
106
219
273
129
210
23
231
122
247
220
272
30
251
146

> <PUBCHEM_MMFF94_PARTIAL_CHARGES>
42
1 -0.57
10 -0.15
11 0.3
12 0.72
13 0.44
14 -0.3
15 0.27
16 -0.15
17 -0.15
18 0.05
19 -0.14
2 -0.36
20 -0.15
21 0.26
22 -0.05
23 -0.15
24 -0.15
25 0.27
26 0.27
27 0.08
28 -0.15
29 -0.3
3 -0.66
30 0.14
31 -0.15
32 0.28
37 0.15
4 0.05
40 0.15
41 0.15
42 0.15
46 0.15
47 0.15
5 -0.81
54 0.15
55 0.15
56 0.15
57 0.15
58 0.27
6 0.3
7 -0.71
8 -0.09

> <PUBCHEM_EFFECTIVE_ROTOR_COUNT>
9

> <PUBCHEM_PHARMACOPHORE_FEATURES>
10
1 1 acceptor
1 2 acceptor
1 4 cation
1 5 cation
1 6 donor
1 7 acceptor
5 4 8 9 10 14 rings
5 6 7 22 29 30 rings
6 19 23 24 27 28 31 rings
6 9 10 16 17 18 20 rings

> <PUBCHEM_HEAVY_ATOM_COUNT>
32

> <PUBCHEM_ATOM_DEF_STEREO_COUNT>
0

> <PUBCHEM_ATOM_UDEF_STEREO_COUNT>
0

> <PUBCHEM_BOND_DEF_STEREO_COUNT>
0

> <PUBCHEM_BOND_UDEF_STEREO_COUNT>
0

> <PUBCHEM_ISOTOPIC_ATOM_COUNT>
0

> <PUBCHEM_COMPONENT_COUNT>
1

> <PUBCHEM_CACTVS_TAUTO_COUNT>
1

> <PUBCHEM_CONFORMER_ID>
036BE2F500000001

> <PUBCHEM_MMFF94_ENERGY>
85.4147

> <PUBCHEM_FEATURE_SELFOVERLAP>
50.839

> <PUBCHEM_SHAPE_FINGERPRINT>
10622 236 18267297629969825434
10675989 125 18267022954073459105
11069576 57 18270401736046624972
11578080 2 18052523389014981264
11763715 3 17916605213714461033
11796584 16 17772760372839548896
11991303 11 18049726218438116817
12166972 35 18411421734892744383
12422481 6 15985104111442617959
131258 38 17773577498694525134
14068700 675 18272655636135902966
14347332 77 18343298133398301051
15484559 13 18119251903453282652
15664445 248 18260823847713427136
17492 89 18060422378683934766
1813 80 18335693940580941913
18365409 1 17695622249466284348
19319366 153 18053377996288561558
20626108 58 18272091539821988754
20775530 9 18343579616421594951
21344244 181 17113250045346870388
21703447 108 18059563724384720656
21792965 302 18410864253013037342
21987483 16 9511465542302729757
23559900 14 18267019651364746091
25222932 49 16556486365096681637
3004659 81 18341891947914480207
34797466 226 17606388007649332055
4017518 198 15886574306088017986
44062 13 17915465999440070459
46194498 28 18115580594909014949
70251023 43 18334579066214344417
9831232 110 18335972178028810343

> <PUBCHEM_SHAPE_MULTIPOLES>
621.9
12.6
6.04
2.17
13.5
4.74
-0.1
-15.72
6.07
-4.47
2.53
-0.43
0.85
-3.48

> <PUBCHEM_SHAPE_SELFOVERLAP>
1347.088

> <PUBCHEM_SHAPE_VOLUME>
345.8

> <PUBCHEM_COORDINATE_TYPE>
2
5
10

$$$$
57400298
  -OEChem-05102415093D

 54 57  0     0  0  0  0  0  0999 V2000
   -3.2242    5.1910    2.1063 O   0  0  0  0  0  0  0  0  0  0  0  0
    1.7168   -1.5244   -1.3480 O   0  0  0  0  0  0  0  0  0  0  0  0
    6.2894   -2.2600    1.3888 O   0  0  0  0  0  0  0  0  0  0  0  0
   -1.4761    1.6798   -0.8108 N   0  0  0  0  0  0  0  0  0  0  0  0
    2.4978    0.6304   -1.7005 N   0  0  0  0  0  0  0  0  0  0  0  0
   -6.9280   -1.6874    1.1778 N   0  0  0  0  0  0  0  0  0  0  0  0
   -6.8576   -2.8837    0.5696 N   0  0  0  0  0  0  0  0  0  0  0  0
   -2.0202    0.4380   -0.5724 C   0  0  0  0  0  0  0  0  0  0  0  0
   -0.9984   -0.4983   -0.7448 C   0  0  0  0  0  0  0  0  0  0  0  0
   -2.1884    2.9375   -0.7420 C   0  0  0  0  0  0  0  0  0  0  0  0
    0.1761    0.2250   -1.0948 C   0  0  0  0  0  0  0  0  0  0  0  0
   -0.1493    1.5614   -1.1271 C   0  0  0  0  0  0  0  0  0  0  0  0
   -3.3253    0.0754   -0.2211 C   0  0  0  0  0  0  0  0  0  0  0  0
   -2.3951    3.4512    0.6845 C   0  0  0  0  0  0  0  0  0  0  0  0
   -1.2911   -1.8639   -0.5578 C   0  0  0  0  0  0  0  0  0  0  0  0
   -3.5923   -1.2848   -0.0410 C   0  0  0  0  0  0  0  0  0  0  0  0
   -2.5923   -2.2413   -0.2062 C   0  0  0  0  0  0  0  0  0  0  0  0
    1.4854   -0.2926   -1.3736 C   0  0  0  0  0  0  0  0  0  0  0  0
   -3.0617    4.8207    0.7431 C   0  0  0  0  0  0  0  0  0  0  0  0
   -4.9193   -1.7012    0.3199 C   0  0  0  0  0  0  0  0  0  0  0  0
    3.8572    0.2647   -2.0279 C   0  0  0  0  0  0  0  0  0  0  0  0
   -5.7930   -0.9404    1.0578 C   0  0  0  0  0  0  0  0  0  0  0  0
    4.7346    0.2160   -0.8105 C   0  0  0  0  0  0  0  0  0  0  0  0
   -5.6283   -2.8865    0.0474 C   0  0  0  0  0  0  0  0  0  0  0  0
    5.1098   -1.0140   -0.2701 C   0  0  0  0  0  0  0  0  0  0  0  0
    5.1740    1.4007   -0.2193 C   0  0  0  0  0  0  0  0  0  0  0  0
    5.9245   -1.0595    0.8613 C   0  0  0  0  0  0  0  0  0  0  0  0
    5.9885    1.3552    0.9122 C   0  0  0  0  0  0  0  0  0  0  0  0
    6.3639    0.1251    1.4524 C   0  0  0  0  0  0  0  0  0  0  0  0
    7.1227   -2.2339    2.5468 C   0  0  0  0  0  0  0  0  0  0  0  0
   -3.1501    2.8048   -1.2511 H   0  0  0  0  0  0  0  0  0  0  0  0
   -1.6212    3.6722   -1.3262 H   0  0  0  0  0  0  0  0  0  0  0  0
    0.4341    2.4464   -1.3431 H   0  0  0  0  0  0  0  0  0  0  0  0
   -4.0925    0.8351   -0.1119 H   0  0  0  0  0  0  0  0  0  0  0  0
   -1.4297    3.5021    1.2053 H   0  0  0  0  0  0  0  0  0  0  0  0
   -2.9920    2.7360    1.2644 H   0  0  0  0  0  0  0  0  0  0  0  0
   -0.5296   -2.6283   -0.6789 H   0  0  0  0  0  0  0  0  0  0  0  0
   -2.7950   -3.3002   -0.0606 H   0  0  0  0  0  0  0  0  0  0  0  0
   -4.0476    4.7934    0.2686 H   0  0  0  0  0  0  0  0  0  0  0  0
   -2.4451    5.5759    0.2456 H   0  0  0  0  0  0  0  0  0  0  0  0
    2.2927    1.6232   -1.7053 H   0  0  0  0  0  0  0  0  0  0  0  0
    3.8533   -0.7008   -2.5468 H   0  0  0  0  0  0  0  0  0  0  0  0
    4.2405    1.0075   -2.7367 H   0  0  0  0  0  0  0  0  0  0  0  0
   -5.7241    0.0389    1.5111 H   0  0  0  0  0  0  0  0  0  0  0  0
   -5.3090   -3.7553   -0.5113 H   0  0  0  0  0  0  0  0  0  0  0  0
   -3.6506    6.0648    2.1150 H   0  0  0  0  0  0  0  0  0  0  0  0
   -7.7841   -1.4440    1.6604 H   0  0  0  0  0  0  0  0  0  0  0  0
    4.7701   -1.9418   -0.7238 H   0  0  0  0  0  0  0  0  0  0  0  0
    4.8879    2.3648   -0.6314 H   0  0  0  0  0  0  0  0  0  0  0  0
    6.3299    2.2783    1.3718 H   0  0  0  0  0  0  0  0  0  0  0  0
    6.9978    0.1625    2.3318 H   0  0  0  0  0  0  0  0  0  0  0  0
    7.3142   -3.2739    2.8308 H   0  0  0  0  0  0  0  0  0  0  0  0
    6.6181   -1.7587    3.3949 H   0  0  0  0  0  0  0  0  0  0  0  0
    8.0947   -1.7768    2.3328 H   0  0  0  0  0  0  0  0  0  0  0  0
  1 19  1  0  0  0  0
  1 46  1  0  0  0  0
  2 18  2  0  0  0  0
  3 27  1  0  0  0  0
  3 30  1  0  0  0  0
  4  8  1  0  0  0  0
  4 10  1  0  0  0  0
  4 12  1  0  0  0  0
  5 18  1  0  0  0  0
  5 21  1  0  0  0  0
  5 41  1  0  0  0  0
  6  7  1  0  0  0  0
  6 22  1  0  0  0  0
  6 47  1  0  0  0  0
  7 24  2  0  0  0  0
  8  9  2  0  0  0  0
  8 13  1  0  0  0  0
  9 11  1  0  0  0  0
  9 15  1  0  0  0  0
 10 14  1  0  0  0  0
 10 31  1  0  0  0  0
 10 32  1  0  0  0  0
 11 12  2  0  0  0  0
 11 18  1  0  0  0  0
 12 33  1  0  0  0  0
 13 16  2  0  0  0  0
 13 34  1  0  0  0  0
 14 19  1  0  0  0  0
 14 35  1  0  0  0  0
 14 36  1  0  0  0  0
 15 17  2  0  0  0  0
 15 37  1  0  0  0  0
 16 17  1  0  0  0  0
 16 20  1  0  0  0  0
 17 38  1  0  0  0  0
 19 39  1  0  0  0  0
 19 40  1  0  0  0  0
 20 22  2  0  0  0  0
 20 24  1  0  0  0  0
 21 23  1  0  0  0  0
 21 42  1  0  0  0  0
 21 43  1  0  0  0  0
 22 44  1  0  0  0  0
 23 25  2  0  0  0  0
 23 26  1  0  0  0  0
 24 45  1  0  0  0  0
 25 27  1  0  0  0  0
 25 48  1  0  0  0  0
 26 28  2  0  0  0  0
 26 49  1  0  0  0  0
 27 29  2  0  0  0  0
 28 29  1  0  0  0  0
 28 50  1  0  0  0  0
 29 51  1  0  0  0  0
 30 52  1  0  0  0  0
 30 53  1  0  0  0  0
 30 54  1  0  0  0  0
M  END
> <PUBCHEM_COMPOUND_CID>
57400298

> <PUBCHEM_CONFORMER_RMSD>
1

> <PUBCHEM_CONFORMER_DIVERSEORDER>
1
84
108
127
68
86
107
19
60
39
43
41
76
123
66
83
122
40
119
46
126
36
61
6
94
103
98
23
67
90
114
20
48
111
27
34
129
59
100
65
17
109
69
9
31
57
99
87
96
33
55
110
105
97
5
35
72
37
112
128
77
74
101
106
82
3
73
92
79
93
54
62
95
42
102
21
71
85
29
89
11
28
13
32
121
78
117
25
26
81
30
104
16
80
124
88
38
113
118
52
63
120
4
10
116
22
44
75
45
70
125
115
24
64
51
47
18
53
91
50
15
56
2
12
49
58
14
8
7

> <PUBCHEM_MMFF94_PARTIAL_CHARGES>
41
1 -0.68
10 0.26
11 -0.09
12 -0.3
13 -0.15
15 -0.15
16 0.05
17 -0.15
18 0.72
19 0.28
2 -0.57
20 -0.05
21 0.44
22 -0.3
23 -0.14
24 0.14
25 -0.15
26 -0.15
27 0.08
28 -0.15
29 -0.15
3 -0.36
30 0.28
33 0.15
34 0.15
37 0.15
38 0.15
4 0.05
41 0.37
44 0.15
45 0.15
46 0.4
47 0.27
48 0.15
49 0.15
5 -0.73
50 0.15
51 0.15
6 0.3
7 -0.71
8 -0.15

> <PUBCHEM_EFFECTIVE_ROTOR_COUNT>
9

> <PUBCHEM_PHARMACOPHORE_FEATURES>
12
1 1 acceptor
1 1 donor
1 2 acceptor
1 3 acceptor
1 4 cation
1 5 donor
1 6 donor
1 7 acceptor
5 4 8 9 11 12 rings
5 6 7 20 22 24 rings
6 23 25 26 27 28 29 rings
6 8 9 13 15 16 17 rings

> <PUBCHEM_HEAVY_ATOM_COUNT>
30

> <PUBCHEM_ATOM_DEF_STEREO_COUNT>
0

> <PUBCHEM_ATOM_UDEF_STEREO_COUNT>
0

> <PUBCHEM_BOND_DEF_STEREO_COUNT>
0

> <PUBCHEM_BOND_UDEF_STEREO_COUNT>
0

> <PUBCHEM_ISOTOPIC_ATOM_COUNT>
0

> <PUBCHEM_COMPONENT_COUNT>
1

> <PUBCHEM_CACTVS_TAUTO_COUNT>
2

> <PUBCHEM_CONFORMER_ID>
036BDBEA00000001

> <PUBCHEM_MMFF94_ENERGY>
64.4046

> <PUBCHEM_FEATURE_SELFOVERLAP>
60.989

> <PUBCHEM_SHAPE_FINGERPRINT>
10319926 262 18270400474090890350
11399510 152 18270665520849349482
11411753 29 17702964547577642828
12107183 9 18048308956576420728
12166972 35 17240767327769228479
12342043 65 17344099332137896510
12516196 113 18268720566141741455
12788726 201 18264790872559910789
12925494 130 18054505807809434376
13073987 5 18410003330987089224
13533116 47 17821728386151059246
13540713 4 17772769181580116364
13540713 5 18115047241591529236
14028597 1 18113339713113017411
14118638 360 17967257524789912108
14150022 121 18060149746818553593
14705955 166 18343857823371403168
15131766 46 15195276586491728824
15188451 53 17822001034838075238
15840311 113 13470417689873582522
16728300 4 18041264483750318342
16993427 108 18335976580006051323
19301679 30 18410020913897910023
19841028 212 17313376830117350650
20642791 105 18333732390805784805
21792934 111 18409166602390223927
21814621 53 16153991374044284397
23569914 2 15910779165261011322
23576562 1 10879695595013047403
23845131 108 17908154174850775177
23929065 36 18341891858100533809
244849 19 17416139277928468484
3004659 81 18042421281408562198
3504750 166 18335976493774324647
3886686 26 17831855746972993858
393628 194 13828409932263369066
4258327 124 11455884801866233011
474113 269 18187634830531093095
5104073 3 18337665331398214824
6004065 56 18196657517638162119
653340 110 18269849639765535181
9555976 147 18267297639038996416

> <PUBCHEM_SHAPE_MULTIPOLES>
579.85
18.96
4.7
1.78
14.3
6.88
0.4
-14.07
11.86
-8.35
2.98
2.35
0.25
-2.36

> <PUBCHEM_SHAPE_SELFOVERLAP>
1264.592

> <PUBCHEM_SHAPE_VOLUME>
318.3

> <PUBCHEM_COORDINATE_TYPE>
2
5
10

$$$$
52935717
  -OEChem-05102415093D

 61 64  0     0  0  0  0  0  0999 V2000
    2.1959    0.3237    2.2550 O   0  0  0  0  0  0  0  0  0  0  0  0
    5.3710   -2.7440   -0.2296 O   0  0  0  0  0  0  0  0  0  0  0  0
   -1.7582    1.7129    0.8724 N   0  0  0  0  0  0  0  0  0  0  0  0
   -4.4638    3.8229   -0.6003 N   0  0  0  0  0  0  0  0  0  0  0  0
    2.5822    1.8211    0.5022 N   0  0  0  0  0  0  0  0  0  0  0  0
   -5.5635   -3.4867   -0.9970 N   0  0  0  0  0  0  0  0  0  0  0  0
   -5.0216   -4.5649   -0.4053 N   0  0  0  0  0  0  0  0  0  0  0  0
   -1.7923    0.3571    0.6361 C   0  0  0  0  0  0  0  0  0  0  0  0
   -0.4851   -0.1162    0.7688 C   0  0  0  0  0  0  0  0  0  0  0  0
   -2.8994    2.6017    0.8372 C   0  0  0  0  0  0  0  0  0  0  0  0
    0.3332    1.0022    1.0922 C   0  0  0  0  0  0  0  0  0  0  0  0
   -0.4781    2.1119    1.1490 C   0  0  0  0  0  0  0  0  0  0  0  0
   -3.3064    2.9356   -0.5975 C   0  0  0  0  0  0  0  0  0  0  0  0
   -2.8692   -0.4781    0.3183 C   0  0  0  0  0  0  0  0  0  0  0  0
   -0.2382   -1.4899    0.5753 C   0  0  0  0  0  0  0  0  0  0  0  0
   -2.6003   -1.8369    0.1310 C   0  0  0  0  0  0  0  0  0  0  0  0
    1.7490    1.0261    1.3266 C   0  0  0  0  0  0  0  0  0  0  0  0
   -1.3059   -2.3372    0.2569 C   0  0  0  0  0  0  0  0  0  0  0  0
    4.0315    1.8751    0.6820 C   0  0  0  0  0  0  0  0  0  0  0  0
   -3.6771   -2.7301   -0.1971 C   0  0  0  0  0  0  0  0  0  0  0  0
   -4.5604    4.5399   -1.8729 C   0  0  0  0  0  0  0  0  0  0  0  0
   -5.6924    3.0677   -0.3485 C   0  0  0  0  0  0  0  0  0  0  0  0
    2.0503    2.6380   -0.5797 C   0  0  0  0  0  0  0  0  0  0  0  0
    4.7410    0.8592   -0.1657 C   0  0  0  0  0  0  0  0  0  0  0  0
   -4.7979   -2.3620   -0.9007 C   0  0  0  0  0  0  0  0  0  0  0  0
   -3.8694   -4.0966    0.0815 C   0  0  0  0  0  0  0  0  0  0  0  0
    4.7258   -0.4869    0.1998 C   0  0  0  0  0  0  0  0  0  0  0  0
    5.4161    1.2615   -1.3183 C   0  0  0  0  0  0  0  0  0  0  0  0
    5.3854   -1.4309   -0.5872 C   0  0  0  0  0  0  0  0  0  0  0  0
    6.0760    0.3175   -2.1052 C   0  0  0  0  0  0  0  0  0  0  0  0
    6.0604   -1.0287   -1.7399 C   0  0  0  0  0  0  0  0  0  0  0  0
    4.6616   -3.0848    0.9606 C   0  0  0  0  0  0  0  0  0  0  0  0
   -3.6985    2.1099    1.4018 H   0  0  0  0  0  0  0  0  0  0  0  0
   -2.6341    3.5138    1.3861 H   0  0  0  0  0  0  0  0  0  0  0  0
   -0.2529    3.1479    1.3671 H   0  0  0  0  0  0  0  0  0  0  0  0
   -2.4483    3.4370   -1.0667 H   0  0  0  0  0  0  0  0  0  0  0  0
   -3.4881    2.0328   -1.1945 H   0  0  0  0  0  0  0  0  0  0  0  0
   -3.8720   -0.0704    0.2403 H   0  0  0  0  0  0  0  0  0  0  0  0
    0.7657   -1.8946    0.6675 H   0  0  0  0  0  0  0  0  0  0  0  0
   -1.0917   -3.3931    0.1053 H   0  0  0  0  0  0  0  0  0  0  0  0
    4.2665    1.6811    1.7359 H   0  0  0  0  0  0  0  0  0  0  0  0
    4.3790    2.8945    0.4741 H   0  0  0  0  0  0  0  0  0  0  0  0
   -3.6704    5.1577   -2.0370 H   0  0  0  0  0  0  0  0  0  0  0  0
   -5.4164    5.2240   -1.8657 H   0  0  0  0  0  0  0  0  0  0  0  0
   -4.6705    3.8576   -2.7236 H   0  0  0  0  0  0  0  0  0  0  0  0
   -5.6844    2.5955    0.6385 H   0  0  0  0  0  0  0  0  0  0  0  0
   -5.8639    2.2906   -1.1026 H   0  0  0  0  0  0  0  0  0  0  0  0
   -6.5585    3.7397   -0.3529 H   0  0  0  0  0  0  0  0  0  0  0  0
    1.8474    3.6393   -0.1889 H   0  0  0  0  0  0  0  0  0  0  0  0
    1.1380    2.2145   -1.0044 H   0  0  0  0  0  0  0  0  0  0  0  0
    2.7819    2.7142   -1.3893 H   0  0  0  0  0  0  0  0  0  0  0  0
   -5.1233   -1.4308   -1.3439 H   0  0  0  0  0  0  0  0  0  0  0  0
   -3.2246   -4.7767    0.6204 H   0  0  0  0  0  0  0  0  0  0  0  0
    4.2019   -0.7487    1.1108 H   0  0  0  0  0  0  0  0  0  0  0  0
    5.4362    2.3067   -1.6149 H   0  0  0  0  0  0  0  0  0  0  0  0
   -6.4620   -3.5898   -1.4518 H   0  0  0  0  0  0  0  0  0  0  0  0
    6.6017    0.6306   -3.0025 H   0  0  0  0  0  0  0  0  0  0  0  0
    6.5763   -1.7593   -2.3569 H   0  0  0  0  0  0  0  0  0  0  0  0
    5.1119   -2.6207    1.8446 H   0  0  0  0  0  0  0  0  0  0  0  0
    3.5930   -2.8608    0.8713 H   0  0  0  0  0  0  0  0  0  0  0  0
    4.7501   -4.1686    1.0897 H   0  0  0  0  0  0  0  0  0  0  0  0
  1 17  2  0  0  0  0
  2 29  1  0  0  0  0
  2 32  1  0  0  0  0
  3  8  1  0  0  0  0
  3 10  1  0  0  0  0
  3 12  1  0  0  0  0
  4 13  1  0  0  0  0
  4 21  1  0  0  0  0
  4 22  1  0  0  0  0
  5 17  1  0  0  0  0
  5 19  1  0  0  0  0
  5 23  1  0  0  0  0
  6  7  1  0  0  0  0
  6 25  1  0  0  0  0
  6 56  1  0  0  0  0
  7 26  2  0  0  0  0
  8  9  2  0  0  0  0
  8 14  1  0  0  0  0
  9 11  1  0  0  0  0
  9 15  1  0  0  0  0
 10 13  1  0  0  0  0
 10 33  1  0  0  0  0
 10 34  1  0  0  0  0
 11 12  2  0  0  0  0
 11 17  1  0  0  0  0
 12 35  1  0  0  0  0
 13 36  1  0  0  0  0
 13 37  1  0  0  0  0
 14 16  2  0  0  0  0
 14 38  1  0  0  0  0
 15 18  2  0  0  0  0
 15 39  1  0  0  0  0
 16 18  1  0  0  0  0
 16 20  1  0  0  0  0
 18 40  1  0  0  0  0
 19 24  1  0  0  0  0
 19 41  1  0  0  0  0
 19 42  1  0  0  0  0
 20 25  2  0  0  0  0
 20 26  1  0  0  0  0
 21 43  1  0  0  0  0
 21 44  1  0  0  0  0
 21 45  1  0  0  0  0
 22 46  1  0  0  0  0
 22 47  1  0  0  0  0
 22 48  1  0  0  0  0
 23 49  1  0  0  0  0
 23 50  1  0  0  0  0
 23 51  1  0  0  0  0
 24 27  2  0  0  0  0
 24 28  1  0  0  0  0
 25 52  1  0  0  0  0
 26 53  1  0  0  0  0
 27 29  1  0  0  0  0
 27 54  1  0  0  0  0
 28 30  2  0  0  0  0
 28 55  1  0  0  0  0
 29 31  2  0  0  0  0
 30 31  1  0  0  0  0
 30 57  1  0  0  0  0
 31 58  1  0  0  0  0
 32 59  1  0  0  0  0
 32 60  1  0  0  0  0
 32 61  1  0  0  0  0
M  END
> <PUBCHEM_COMPOUND_CID>
52935717

> <PUBCHEM_CONFORMER_RMSD>
1

> <PUBCHEM_CONFORMER_DIVERSEORDER>
1
70
52
245
134
296
270
61
156
85
264
300
78
167
36
285
294
195
297
33
46
57
161
202
244
90
312
63
261
71
214
238
247
206
248
30
228
232
118
271
41
72
236
99
304
203
154
145
129
233
80
194
314
126
76
234
140
158
302
311
306
160
250
199
213
14
12
138
27
257
255
181
237
84
277
196
174
224
278
68
108
267
111
207
290
79
316
104
212
273
88
48
163
229
259
11
139
295
100
309
94
246
243
272
152
123
201
183
182
55
137
136
77
289
258
157
249
256
265
221
208
64
269
191
197
227
292
211
186
69
188
115
299
230
89
308
53
166
38
119
28
95
146
56
235
251
143
283
81
148
240
58
276
223
24
172
288
105
298
26
15
317
291
51
96
120
132
293
49
147
222
225
116
74
50
209
253
93
8
231
128
133
303
144
125
262
19
162
189
200
185
37
87
180
112
193
205
44
242
159
121
173
97
198
215
169
106
18
301
279
150
204
210
307
239
92
117
82
7
177
66
73
67
110
131
122
187
114
155
107
75
141
164
43
9
178
263
3
220
31
98
60
149
25
47
280
260
2
109
275
34
124
192
313
35
54
216
127
171
5
21
179
282
6
219
274
42
91
45
4
175
217
268
101
170
59
113
102
17
190
32
241
135
83
22
16
153
151
281
184
315
310
86
286
168
39
266
176
40
65
284
23
62
305
142
252
218
254
10
165
287
130
226
29
103
13
20

> <PUBCHEM_MMFF94_PARTIAL_CHARGES>
42
1 -0.57
10 0.26
11 -0.09
12 -0.3
13 0.27
14 -0.15
15 -0.15
16 0.05
17 0.72
18 -0.15
19 0.44
2 -0.36
20 -0.05
21 0.27
22 0.27
23 0.3
24 -0.14
25 -0.3
26 0.14
27 -0.15
28 -0.15
29 0.08
3 0.05
30 -0.15
31 -0.15
32 0.28
35 0.15
38 0.15
39 0.15
4 -0.81
40 0.15
5 -0.66
52 0.15
53 0.15
54 0.15
55 0.15
56 0.27
57 0.15
58 0.15
6 0.3
7 -0.71
8 -0.15

> <PUBCHEM_EFFECTIVE_ROTOR_COUNT>
9

> <PUBCHEM_PHARMACOPHORE_FEATURES>
10
1 1 acceptor
1 2 acceptor
1 3 cation
1 4 cation
1 6 donor
1 7 acceptor
5 3 8 9 11 12 rings
5 6 7 20 25 26 rings
6 24 27 28 29 30 31 rings
6 8 9 14 15 16 18 rings

> <PUBCHEM_HEAVY_ATOM_COUNT>
32

> <PUBCHEM_ATOM_DEF_STEREO_COUNT>
0

> <PUBCHEM_ATOM_UDEF_STEREO_COUNT>
0

> <PUBCHEM_BOND_DEF_STEREO_COUNT>
0

> <PUBCHEM_BOND_UDEF_STEREO_COUNT>
0

> <PUBCHEM_ISOTOPIC_ATOM_COUNT>
0

> <PUBCHEM_COMPONENT_COUNT>
1

> <PUBCHEM_CACTVS_TAUTO_COUNT>
1

> <PUBCHEM_CONFORMER_ID>
0327BC2500000001

> <PUBCHEM_MMFF94_ENERGY>
85.0429

> <PUBCHEM_FEATURE_SELFOVERLAP>
50.839

> <PUBCHEM_SHAPE_FINGERPRINT>
10254770 206 17470721114339519546
10622 236 18337950096257207194
11796584 16 18201168642126804076
11991303 11 18262518088000240781
12422481 6 16486425389675289919
12788726 201 18116980273411432723
13540713 4 18059280063306852456
13617811 41 18119525689652432526
13690498 29 18342185508829149726
13782708 43 17560524031174073711
14068700 686 18051408767159708928
14117953 113 17905327321939272558
14347332 77 18411980299199571211
14931854 50 18337122267207041598
15950262 2 15215802076839645573
17492 89 18343305898851984066
19301676 85 17694234265723003510
19311894 1 18412831252654573289
19958102 18 18337659846208110781
21307412 95 18057339288276929676
21641784 216 17750218352966791733
21703447 108 18126279977066639680
22393880 68 18341624707197892852
23559900 14 18202563956842924208
244849 19 17559939052096066992
24771750 20 17615126586533085493
255183 451 17836364123105326615
3103668 31 18335409215479845173
3388396 114 17537182588738021004
4046055 25 18193273233721486295
4058900 60 17829895335094910937
44062 13 18341618096504758964
4440575 13 18118115880451708226
46194498 28 17826506957889746628
513202 73 18341617074698564743
563151 40 18335707105357226915
59755656 520 18129953265358949889
633830 44 17095536067405179080
6698420 124 18059022657733453401
70251023 43 18122628515998555881

> <PUBCHEM_SHAPE_MULTIPOLES>
621.9
15.68
6.06
1.53
11.04
1.43
0.22
4.02
8.41
-12.72
1.83
1.26
-0.67
0.24

> <PUBCHEM_SHAPE_SELFOVERLAP>
1347.115

> <PUBCHEM_SHAPE_VOLUME>
346.1

> <PUBCHEM_COORDINATE_TYPE>
2
5
10

$$$$
57402102
  -OEChem-05102415093D

 76 80  0     0  0  0  0  0  0999 V2000
    2.4746    0.6109    2.4919 O   0  0  0  0  0  0  0  0  0  0  0  0
    6.2787   -2.2526    0.7693 O   0  0  0  0  0  0  0  0  0  0  0  0
   -5.0947    2.1055    0.6261 N   0  0  0  0  0  0  0  0  0  0  0  0
   -1.6934    0.6106    1.3640 N   0  0  0  0  0  0  0  0  0  0  0  0
    2.5417    1.6225    0.3857 N   0  0  0  0  0  0  0  0  0  0  0  0
    0.5372    3.6959   -1.9949 N   0  0  0  0  0  0  0  0  0  0  0  0
   -4.1206   -4.9451   -1.5091 N   0  0  0  0  0  0  0  0  0  0  0  0
   -3.2313   -5.9145   -1.2343 N   0  0  0  0  0  0  0  0  0  0  0  0
   -6.0656    1.0161    0.7232 C   0  0  0  0  0  0  0  0  0  0  0  0
   -5.6092    2.9799   -0.4275 C   0  0  0  0  0  0  0  0  0  0  0  0
   -7.4003    1.7402    0.6273 C   0  0  0  0  0  0  0  0  0  0  0  0
   -7.1010    3.0290   -0.1321 C   0  0  0  0  0  0  0  0  0  0  0  0
   -3.7494    1.6273    0.3439 C   0  0  0  0  0  0  0  0  0  0  0  0
   -3.0870    1.1240    1.6257 C   0  0  0  0  0  0  0  0  0  0  0  0
   -1.3816   -0.6071    0.8026 C   0  0  0  0  0  0  0  0  0  0  0  0
    0.0112   -0.6855    0.7388 C   0  0  0  0  0  0  0  0  0  0  0  0
   -0.5490    1.3028    1.6564 C   0  0  0  0  0  0  0  0  0  0  0  0
    0.5231    0.5267    1.2808 C   0  0  0  0  0  0  0  0  0  0  0  0
   -2.2173   -1.6347    0.3510 C   0  0  0  0  0  0  0  0  0  0  0  0
    1.8951    0.9201    1.4319 C   0  0  0  0  0  0  0  0  0  0  0  0
    0.6012   -1.8453    0.1982 C   0  0  0  0  0  0  0  0  0  0  0  0
   -1.6097   -2.7754   -0.1813 C   0  0  0  0  0  0  0  0  0  0  0  0
   -0.2223   -2.8813   -0.2574 C   0  0  0  0  0  0  0  0  0  0  0  0
    1.8535    1.9802   -0.8529 C   0  0  0  0  0  0  0  0  0  0  0  0
    3.9354    2.0351    0.4742 C   0  0  0  0  0  0  0  0  0  0  0  0
    1.1928    3.3464   -0.7413 C   0  0  0  0  0  0  0  0  0  0  0  0
   -2.4306   -3.8545   -0.6572 C   0  0  0  0  0  0  0  0  0  0  0  0
    4.8638    1.0064   -0.1036 C   0  0  0  0  0  0  0  0  0  0  0  0
   -3.6896   -3.6929   -1.1823 C   0  0  0  0  0  0  0  0  0  0  0  0
   -2.2011   -5.2423   -0.7141 C   0  0  0  0  0  0  0  0  0  0  0  0
    5.1429   -0.1597    0.6092 C   0  0  0  0  0  0  0  0  0  0  0  0
    5.4478    1.2168   -1.3528 C   0  0  0  0  0  0  0  0  0  0  0  0
   -0.7519    3.0114   -2.1120 C   0  0  0  0  0  0  0  0  0  0  0  0
    0.3525    5.1450   -2.0945 C   0  0  0  0  0  0  0  0  0  0  0  0
    6.0059   -1.1154    0.0729 C   0  0  0  0  0  0  0  0  0  0  0  0
    6.3110    0.2613   -1.8891 C   0  0  0  0  0  0  0  0  0  0  0  0
    6.5899   -0.9050   -1.1764 C   0  0  0  0  0  0  0  0  0  0  0  0
    5.6472   -2.4027    2.0400 C   0  0  0  0  0  0  0  0  0  0  0  0
   -5.9839    0.4618    1.6632 H   0  0  0  0  0  0  0  0  0  0  0  0
   -5.9713    0.3071   -0.1095 H   0  0  0  0  0  0  0  0  0  0  0  0
   -5.4417    2.5529   -1.4248 H   0  0  0  0  0  0  0  0  0  0  0  0
   -5.1594    3.9772   -0.3945 H   0  0  0  0  0  0  0  0  0  0  0  0
   -8.1514    1.1318    0.1134 H   0  0  0  0  0  0  0  0  0  0  0  0
   -7.7864    1.9793    1.6251 H   0  0  0  0  0  0  0  0  0  0  0  0
   -7.3459    3.8943    0.4951 H   0  0  0  0  0  0  0  0  0  0  0  0
   -7.6898    3.1037   -1.0520 H   0  0  0  0  0  0  0  0  0  0  0  0
   -3.1412    2.4610   -0.0271 H   0  0  0  0  0  0  0  0  0  0  0  0
   -3.7389    0.8680   -0.4477 H   0  0  0  0  0  0  0  0  0  0  0  0
   -2.9826    1.9211    2.3711 H   0  0  0  0  0  0  0  0  0  0  0  0
   -3.6224    0.2866    2.0860 H   0  0  0  0  0  0  0  0  0  0  0  0
   -0.5924    2.2856    2.1072 H   0  0  0  0  0  0  0  0  0  0  0  0
   -3.2951   -1.5371    0.4335 H   0  0  0  0  0  0  0  0  0  0  0  0
    1.6813   -1.9409    0.1306 H   0  0  0  0  0  0  0  0  0  0  0  0
    0.2540   -3.7648   -0.6771 H   0  0  0  0  0  0  0  0  0  0  0  0
    2.5779    1.9703   -1.6762 H   0  0  0  0  0  0  0  0  0  0  0  0
    1.1239    1.2025   -1.0894 H   0  0  0  0  0  0  0  0  0  0  0  0
    4.1948    2.1887    1.5292 H   0  0  0  0  0  0  0  0  0  0  0  0
    4.0615    3.0095   -0.0123 H   0  0  0  0  0  0  0  0  0  0  0  0
    0.5030    3.4056    0.1079 H   0  0  0  0  0  0  0  0  0  0  0  0
    1.9862    4.0745   -0.5251 H   0  0  0  0  0  0  0  0  0  0  0  0
   -4.3132   -2.8279   -1.3623 H   0  0  0  0  0  0  0  0  0  0  0  0
   -1.3305   -5.7997   -0.3977 H   0  0  0  0  0  0  0  0  0  0  0  0
    4.6786   -0.2715    1.5811 H   0  0  0  0  0  0  0  0  0  0  0  0
    5.2391    2.1206   -1.9191 H   0  0  0  0  0  0  0  0  0  0  0  0
   -1.4387    3.2977   -1.3092 H   0  0  0  0  0  0  0  0  0  0  0  0
   -1.2274    3.2613   -3.0675 H   0  0  0  0  0  0  0  0  0  0  0  0
   -0.6432    1.9229   -2.1056 H   0  0  0  0  0  0  0  0  0  0  0  0
   -0.1215    5.4082   -3.0467 H   0  0  0  0  0  0  0  0  0  0  0  0
   -0.2662    5.5390   -1.2799 H   0  0  0  0  0  0  0  0  0  0  0  0
    1.3194    5.6601   -2.0760 H   0  0  0  0  0  0  0  0  0  0  0  0
   -5.0059   -5.2093   -1.9228 H   0  0  0  0  0  0  0  0  0  0  0  0
    6.7657    0.4251   -2.8617 H   0  0  0  0  0  0  0  0  0  0  0  0
    7.2630   -1.6457   -1.5993 H   0  0  0  0  0  0  0  0  0  0  0  0
    5.9723   -3.3645    2.4502 H   0  0  0  0  0  0  0  0  0  0  0  0
    4.5568   -2.4488    1.9454 H   0  0  0  0  0  0  0  0  0  0  0  0
    5.9717   -1.6295    2.7448 H   0  0  0  0  0  0  0  0  0  0  0  0
  1 20  2  0  0  0  0
  2 35  1  0  0  0  0
  2 38  1  0  0  0  0
  3  9  1  0  0  0  0
  3 10  1  0  0  0  0
  3 13  1  0  0  0  0
  4 14  1  0  0  0  0
  4 15  1  0  0  0  0
  4 17  1  0  0  0  0
  5 20  1  0  0  0  0
  5 24  1  0  0  0  0
  5 25  1  0  0  0  0
  6 26  1  0  0  0  0
  6 33  1  0  0  0  0
  6 34  1  0  0  0  0
  7  8  1  0  0  0  0
  7 29  1  0  0  0  0
  7 71  1  0  0  0  0
  8 30  2  0  0  0  0
  9 11  1  0  0  0  0
  9 39  1  0  0  0  0
  9 40  1  0  0  0  0
 10 12  1  0  0  0  0
 10 41  1  0  0  0  0
 10 42  1  0  0  0  0
 11 12  1  0  0  0  0
 11 43  1  0  0  0  0
 11 44  1  0  0  0  0
 12 45  1  0  0  0  0
 12 46  1  0  0  0  0
 13 14  1  0  0  0  0
 13 47  1  0  0  0  0
 13 48  1  0  0  0  0
 14 49  1  0  0  0  0
 14 50  1  0  0  0  0
 15 16  2  0  0  0  0
 15 19  1  0  0  0  0
 16 18  1  0  0  0  0
 16 21  1  0  0  0  0
 17 18  2  0  0  0  0
 17 51  1  0  0  0  0
 18 20  1  0  0  0  0
 19 22  2  0  0  0  0
 19 52  1  0  0  0  0
 21 23  2  0  0  0  0
 21 53  1  0  0  0  0
 22 23  1  0  0  0  0
 22 27  1  0  0  0  0
 23 54  1  0  0  0  0
 24 26  1  0  0  0  0
 24 55  1  0  0  0  0
 24 56  1  0  0  0  0
 25 28  1  0  0  0  0
 25 57  1  0  0  0  0
 25 58  1  0  0  0  0
 26 59  1  0  0  0  0
 26 60  1  0  0  0  0
 27 29  2  0  0  0  0
 27 30  1  0  0  0  0
 28 31  2  0  0  0  0
 28 32  1  0  0  0  0
 29 61  1  0  0  0  0
 30 62  1  0  0  0  0
 31 35  1  0  0  0  0
 31 63  1  0  0  0  0
 32 36  2  0  0  0  0
 32 64  1  0  0  0  0
 33 65  1  0  0  0  0
 33 66  1  0  0  0  0
 33 67  1  0  0  0  0
 34 68  1  0  0  0  0
 34 69  1  0  0  0  0
 34 70  1  0  0  0  0
 35 37  2  0  0  0  0
 36 37  1  0  0  0  0
 36 72  1  0  0  0  0
 37 73  1  0  0  0  0
 38 74  1  0  0  0  0
 38 75  1  0  0  0  0
 38 76  1  0  0  0  0
M  END
> <PUBCHEM_COMPOUND_CID>
57402102

> <PUBCHEM_CONFORMER_RMSD>
1.2

> <PUBCHEM_CONFORMER_DIVERSEORDER>
1
209
53
218
112
66
230
231
205
144
133
219
131
67
213
198
177
228
194
159
124
85
240
199
118
54
70
107
235
72
134
210
62
49
215
94
201
93
35
239
237
127
189
157
148
238
188
193
224
165
56
232
27
81
98
102
172
60
191
113
208
20
216
116
149
175
129
163
69
220
83
206
24
167
155
182
80
171
227
135
211
168
170
225
192
31
185
145
65
121
34
68
39
158
169
197
179
89
174
114
162
50
221
41
103
178
203
125
86
33
97
122
37
186
46
212
214
106
141
119
117
45
181
234
137
58
64
183
140
59
151
152
78
130
138
30
136
150
166
164
123
146
111
128
73
204
91
100
180
243
43
79
217
104
200
77
156
8
160
44
236
13
241
88
19
147
196
5
109
38
154
76
195
96
99
61
16
90
29
74
126
84
28
47
223
229
95
233
139
190
115
52
222
143
51
7
42
92
187
14
110
173
245
108
48
242
11
17
142
244
26
57
36
63
10
120
105
207
75
55
6
226
32
22
101
176
23
9
4
18
184
12
132
82
87
15
25
153
161
2
71
21
3
202
40

> <PUBCHEM_MMFF94_PARTIAL_CHARGES>
46
1 -0.57
10 0.27
13 0.27
14 0.26
15 -0.15
17 -0.3
18 -0.09
19 -0.15
2 -0.36
20 0.72
21 -0.15
22 0.05
23 -0.15
24 0.3
25 0.44
26 0.27
27 -0.05
28 -0.14
29 -0.3
3 -0.81
30 0.14
31 -0.15
32 -0.15
33 0.27
34 0.27
35 0.08
36 -0.15
37 -0.15
38 0.28
4 0.05
5 -0.66
51 0.15
52 0.15
53 0.15
54 0.15
6 -0.81
61 0.15
62 0.15
63 0.15
64 0.15
7 0.3
71 0.27
72 0.15
73 0.15
8 -0.71
9 0.27

> <PUBCHEM_EFFECTIVE_ROTOR_COUNT>
13

> <PUBCHEM_PHARMACOPHORE_FEATURES>
12
1 1 acceptor
1 2 acceptor
1 3 cation
1 4 cation
1 6 cation
1 7 donor
1 8 acceptor
5 3 9 10 11 12 rings
5 4 15 16 17 18 rings
5 7 8 27 29 30 rings
6 15 16 19 21 22 23 rings
6 28 31 32 35 36 37 rings

> <PUBCHEM_HEAVY_ATOM_COUNT>
38

> <PUBCHEM_ATOM_DEF_STEREO_COUNT>
0

> <PUBCHEM_ATOM_UDEF_STEREO_COUNT>
0

> <PUBCHEM_BOND_DEF_STEREO_COUNT>
0

> <PUBCHEM_BOND_UDEF_STEREO_COUNT>
0

> <PUBCHEM_ISOTOPIC_ATOM_COUNT>
0

> <PUBCHEM_COMPONENT_COUNT>
1

> <PUBCHEM_CACTVS_TAUTO_COUNT>
1

> <PUBCHEM_CONFORMER_ID>
036BE2F600000001

> <PUBCHEM_MMFF94_ENERGY>
90.735

> <PUBCHEM_FEATURE_SELFOVERLAP>
60.99

> <PUBCHEM_SHAPE_FINGERPRINT>
10050765 1 18198899391486397320
10940486 97 18410577322631210197
11796584 16 18201444692554441330
11991303 11 18410013239091733395
13540713 4 17630878498890469906
14068700 686 17622721334015403336
14117953 113 18196658402538438726
14289585 56 17749656464023397029
14347332 77 18198058282007948770
15183329 4 18339652135460585200
15297060 5 18201726111860497721
15849732 13 18260836981333463393
16628084 112 17824822248346463322
18365409 1 18342453794868383069
18681886 176 18407761447973933009
19301676 85 17913509951581771638
19611394 137 17532396273816507081
21307412 95 17987821630565858750
21583282 1 18113912515515986038
21703447 108 17768805717324947920
21781051 124 18410863161600857427
22223350 30 18200868603726772313
23576562 1 18263093260782208197
244849 19 17273966024987213952
25223398 141 18341617074845731979
3103668 31 18196927980740725479
340366 18 18336839670257286108
3534868 343 17471294427926576613
4017518 198 18341903939357962119
4046055 25 17907572885217734231
46194498 28 17467053581423971502
563151 97 17613452442414249708
9658208 31 18201988954746371289

> <PUBCHEM_SHAPE_MULTIPOLES>
740.4
16.38
7.21
1.94
2.48
7.55
0.05
-3.68
0.16
-9.95
5.57
1.22
-0.66
-3.61

> <PUBCHEM_SHAPE_SELFOVERLAP>
1591.087

> <PUBCHEM_SHAPE_VOLUME>
414.1

> <PUBCHEM_COORDINATE_TYPE>
2
5
10

$$$$
57395100
  -OEChem-05102415093D

 43 46  0     0  0  0  0  0  0999 V2000
    1.1947   -0.1296   -1.6538 O   0  0  0  0  0  0  0  0  0  0  0  0
    5.7520   -2.5760   -0.1757 O   0  0  0  0  0  0  0  0  0  0  0  0
   -1.7258    2.2959    0.8735 N   0  0  0  0  0  0  0  0  0  0  0  0
    2.1364    1.7720   -0.7189 N   0  0  0  0  0  0  0  0  0  0  0  0
   -3.6374    0.8604    0.5757 N   0  0  0  0  0  0  0  0  0  0  0  0
   -7.4422   -0.6525    0.8430 N   0  0  0  0  0  0  0  0  0  0  0  0
   -7.3705   -1.7719    0.1025 N   0  0  0  0  0  0  0  0  0  0  0  0
   -1.4152    0.4805   -0.3894 C   0  0  0  0  0  0  0  0  0  0  0  0
   -0.1968    1.2064   -0.3207 C   0  0  0  0  0  0  0  0  0  0  0  0
   -2.3479    1.1861    0.3652 C   0  0  0  0  0  0  0  0  0  0  0  0
   -0.4181    2.3184    0.4629 C   0  0  0  0  0  0  0  0  0  0  0  0
   -1.8472   -0.7042   -1.0073 C   0  0  0  0  0  0  0  0  0  0  0  0
    1.0609    0.8881   -0.9340 C   0  0  0  0  0  0  0  0  0  0  0  0
   -3.9983   -0.2882   -0.0423 C   0  0  0  0  0  0  0  0  0  0  0  0
    3.4551    1.6020   -1.2851 C   0  0  0  0  0  0  0  0  0  0  0  0
   -3.1741   -1.0884   -0.8222 C   0  0  0  0  0  0  0  0  0  0  0  0
    4.3518    0.7972   -0.3894 C   0  0  0  0  0  0  0  0  0  0  0  0
   -5.3688   -0.6728    0.1562 C   0  0  0  0  0  0  0  0  0  0  0  0
    4.6397   -0.5313   -0.7026 C   0  0  0  0  0  0  0  0  0  0  0  0
    4.8962    1.3775    0.7563 C   0  0  0  0  0  0  0  0  0  0  0  0
    5.4722   -1.2795    0.1298 C   0  0  0  0  0  0  0  0  0  0  0  0
   -6.2700    0.0419    0.9069 C   0  0  0  0  0  0  0  0  0  0  0  0
   -6.1016   -1.7789   -0.3142 C   0  0  0  0  0  0  0  0  0  0  0  0
    5.7286    0.6292    1.5889 C   0  0  0  0  0  0  0  0  0  0  0  0
    6.0168   -0.6992    1.2756 C   0  0  0  0  0  0  0  0  0  0  0  0
    6.6094   -3.2833    0.7191 C   0  0  0  0  0  0  0  0  0  0  0  0
    0.2177    3.1339    0.7778 H   0  0  0  0  0  0  0  0  0  0  0  0
   -2.1649    2.9911    1.4610 H   0  0  0  0  0  0  0  0  0  0  0  0
   -1.1824   -1.3119   -1.6121 H   0  0  0  0  0  0  0  0  0  0  0  0
    3.8808    2.5995   -1.4433 H   0  0  0  0  0  0  0  0  0  0  0  0
    3.3636    1.1330   -2.2715 H   0  0  0  0  0  0  0  0  0  0  0  0
   -3.5197   -2.0022   -1.2948 H   0  0  0  0  0  0  0  0  0  0  0  0
    2.0097    2.5839   -0.1247 H   0  0  0  0  0  0  0  0  0  0  0  0
    4.2179   -0.9915   -1.5928 H   0  0  0  0  0  0  0  0  0  0  0  0
    4.6787    2.4115    1.0106 H   0  0  0  0  0  0  0  0  0  0  0  0
   -6.1993    0.9608    1.4727 H   0  0  0  0  0  0  0  0  0  0  0  0
   -5.7785   -2.5965   -0.9430 H   0  0  0  0  0  0  0  0  0  0  0  0
    6.1519    1.0820    2.4809 H   0  0  0  0  0  0  0  0  0  0  0  0
    6.6703   -1.2222    1.9653 H   0  0  0  0  0  0  0  0  0  0  0  0
   -8.3263   -0.4211    1.2785 H   0  0  0  0  0  0  0  0  0  0  0  0
    7.6098   -2.8387    0.7535 H   0  0  0  0  0  0  0  0  0  0  0  0
    6.1624   -3.3774    1.7146 H   0  0  0  0  0  0  0  0  0  0  0  0
    6.7239   -4.2976    0.3230 H   0  0  0  0  0  0  0  0  0  0  0  0
  1 13  2  0  0  0  0
  2 21  1  0  0  0  0
  2 26  1  0  0  0  0
  3 10  1  0  0  0  0
  3 11  1  0  0  0  0
  3 28  1  0  0  0  0
  4 13  1  0  0  0  0
  4 15  1  0  0  0  0
  4 33  1  0  0  0  0
  5 10  1  0  0  0  0
  5 14  2  0  0  0  0
  6  7  1  0  0  0  0
  6 22  1  0  0  0  0
  6 40  1  0  0  0  0
  7 23  2  0  0  0  0
  8  9  1  0  0  0  0
  8 10  2  0  0  0  0
  8 12  1  0  0  0  0
  9 11  2  0  0  0  0
  9 13  1  0  0  0  0
 11 27  1  0  0  0  0
 12 16  2  0  0  0  0
 12 29  1  0  0  0  0
 14 16  1  0  0  0  0
 14 18  1  0  0  0  0
 15 17  1  0  0  0  0
 15 30  1  0  0  0  0
 15 31  1  0  0  0  0
 16 32  1  0  0  0  0
 17 19  2  0  0  0  0
 17 20  1  0  0  0  0
 18 22  2  0  0  0  0
 18 23  1  0  0  0  0
 19 21  1  0  0  0  0
 19 34  1  0  0  0  0
 20 24  2  0  0  0  0
 20 35  1  0  0  0  0
 21 25  2  0  0  0  0
 22 36  1  0  0  0  0
 23 37  1  0  0  0  0
 24 25  1  0  0  0  0
 24 38  1  0  0  0  0
 25 39  1  0  0  0  0
 26 41  1  0  0  0  0
 26 42  1  0  0  0  0
 26 43  1  0  0  0  0
M  END
> <PUBCHEM_COMPOUND_CID>
57395100

> <PUBCHEM_CONFORMER_RMSD>
0.8

> <PUBCHEM_CONFORMER_DIVERSEORDER>
1
67
28
80
59
70
55
72
7
64
68
63
40
82
4
73
48
36
18
14
45
37
78
31
81
47
79
30
54
44
46
16
35
25
60
74
24
23
41
52
57
27
11
56
71
19
3
51
29
43
58
32
9
15
61
66
75
53
65
26
69
62
2
21
12
22
5
77
76
50
17
6
39
34
13
42
38
49
33
10
8
20

> <PUBCHEM_MMFF94_PARTIAL_CHARGES>
37
1 -0.57
10 0.11
11 -0.3
12 -0.15
13 0.72
14 0.36
15 0.44
16 -0.15
17 -0.14
18 -0.05
19 -0.15
2 -0.36
20 -0.15
21 0.08
22 -0.3
23 0.14
24 -0.15
25 -0.15
26 0.28
27 0.15
28 0.27
29 0.15
3 0.03
32 0.15
33 0.37
34 0.15
35 0.15
36 0.15
37 0.15
38 0.15
39 0.15
4 -0.73
40 0.27
5 -0.57
6 0.3
7 -0.71
9 -0.09

> <PUBCHEM_EFFECTIVE_ROTOR_COUNT>
6

> <PUBCHEM_PHARMACOPHORE_FEATURES>
12
1 1 acceptor
1 2 acceptor
1 3 cation
1 3 donor
1 4 donor
1 5 acceptor
1 6 donor
1 7 acceptor
5 3 8 9 10 11 rings
5 6 7 18 22 23 rings
6 17 19 20 21 24 25 rings
6 5 8 10 12 14 16 rings

> <PUBCHEM_HEAVY_ATOM_COUNT>
26

> <PUBCHEM_ATOM_DEF_STEREO_COUNT>
0

> <PUBCHEM_ATOM_UDEF_STEREO_COUNT>
0

> <PUBCHEM_BOND_DEF_STEREO_COUNT>
0

> <PUBCHEM_BOND_UDEF_STEREO_COUNT>
0

> <PUBCHEM_ISOTOPIC_ATOM_COUNT>
0

> <PUBCHEM_COMPONENT_COUNT>
1

> <PUBCHEM_CACTVS_TAUTO_COUNT>
28

> <PUBCHEM_CONFORMER_ID>
036BC79C00000001

> <PUBCHEM_MMFF94_ENERGY>
58.1091

> <PUBCHEM_FEATURE_SELFOVERLAP>
61.01

> <PUBCHEM_SHAPE_FINGERPRINT>
10 15 16917068892643757417
10280341 67 8501498094090690614
10319926 262 17702952405594170780
10670039 82 11170174446457212830
10753850 27 18114179748106699641
11408170 253 11458961175868217623
11476731 118 12031518640254383947
11719270 70 18273501178153554479
11991303 11 16302029361551688780
12166972 35 18040439901230938724
12236239 1 18335142011856753165
125118 31 13613976491170243195
13533116 47 18335703866709474016
13551218 46 18411699876584676782
13668630 136 17530683212285987250
13685833 64 17603583045390038764
13782708 43 17676768777345112451
13862211 1 18271248313467125549
13914758 101 17894909612469356477
14211702 104 18335427897453900443
14528608 73 9151176450124000076
14931854 50 11242260602523959846
15001296 14 18114176501359519578
15183329 4 12107780792114168876
15188451 53 18335134280936563568
15475509 35 18340762659959215778
15510800 12 17894638041513216162
16728300 4 18267296543432471830
16994733 274 12967141488831556795
1768 124 18411697699379532182
1813 80 17749109964010951636
1979834 28 17203338805540906492
19841028 212 18260546702180192218
20028762 73 18410293584450269410
20165401 70 18410008849192616926
20397935 70 18409449189800387366
20567600 234 15626226857288790961
21130935 74 18412828014459786939
21344244 181 17603873329197163523
21792934 111 18131072593949543665
221357 26 13623522476538619574
2215653 11 14562529591599314580
22224240 67 15698004050571750645
23081809 10 18335151920504723189
23522609 53 18122097353441775629
23559900 14 15792301539287817413
23576562 1 8430015544374737011
23845131 108 17053328933850535881
25122255 55 17676778642357445347
2838139 119 10879723039310301267
3004659 81 18339375161303535524
3383291 50 18260829314959558051
3472631 163 8934994885039408080
34797466 226 15647058213246966564
3680242 22 18342465862697784173
3886686 26 17335631812730139406
393628 194 11238269435450340490
406291 66 18334292020697004826
4340502 62 15410903963124166141
474113 269 18341604907198523503
5104073 3 17988362581449207824
5718773 13 18260828159866055506
59682541 52 14707198920755994120
59755656 215 14129327512419978489
960060 61 14418137305793532416
9980921 221 14779537925409999335

> <PUBCHEM_SHAPE_MULTIPOLES>
498.42
20.66
2.56
1.23
8.11
1.06
-0.01
15.27
6.79
-3.18
0.29
-0.95
-0.17
-0.98

> <PUBCHEM_SHAPE_SELFOVERLAP>
1108.097

> <PUBCHEM_SHAPE_VOLUME>
266.6

> <PUBCHEM_COORDINATE_TYPE>
2
5
10

$$$$
57400299
  -OEChem-05102415093D

 50 54  0     0  0  0  0  0  0999 V2000
   -1.7691    2.3665    2.0606 O   0  0  0  0  0  0  0  0  0  0  0  0
   -3.3656   -3.3102    1.2752 O   0  0  0  0  0  0  0  0  0  0  0  0
   -2.0564    1.5692   -0.1202 N   0  0  0  0  0  0  0  0  0  0  0  0
    2.2106    2.9370    0.7465 N   0  0  0  0  0  0  0  0  0  0  0  0
    3.4923    0.9570    0.2563 N   0  0  0  0  0  0  0  0  0  0  0  0
    6.6633   -1.5257   -0.5298 N   0  0  0  0  0  0  0  0  0  0  0  0
    6.0740   -2.7246   -0.6761 N   0  0  0  0  0  0  0  0  0  0  0  0
   -1.4769    1.1726   -1.3885 C   0  0  0  0  0  0  0  0  0  0  0  0
   -0.5687    2.0937   -2.1489 C   0  0  0  0  0  0  0  0  0  0  0  0
   -1.9379    1.7840   -2.6790 C   0  0  0  0  0  0  0  0  0  0  0  0
   -3.5002    1.4142    0.0007 C   0  0  0  0  0  0  0  0  0  0  0  0
   -1.2727    2.0250    0.9690 C   0  0  0  0  0  0  0  0  0  0  0  0
   -3.9312   -0.0101   -0.1991 C   0  0  0  0  0  0  0  0  0  0  0  0
    0.1533    2.0929    0.8235 C   0  0  0  0  0  0  0  0  0  0  0  0
    1.0576    1.0360    0.5377 C   0  0  0  0  0  0  0  0  0  0  0  0
    0.8912    3.2505    0.9468 C   0  0  0  0  0  0  0  0  0  0  0  0
   -3.4432   -1.0107    0.6414 C   0  0  0  0  0  0  0  0  0  0  0  0
   -4.8189   -0.3329   -1.2256 C   0  0  0  0  0  0  0  0  0  0  0  0
    2.3313    1.5954    0.4965 C   0  0  0  0  0  0  0  0  0  0  0  0
    0.9505   -0.3448    0.3058 C   0  0  0  0  0  0  0  0  0  0  0  0
   -3.8429   -2.3342    0.4555 C   0  0  0  0  0  0  0  0  0  0  0  0
   -5.2185   -1.6563   -1.4116 C   0  0  0  0  0  0  0  0  0  0  0  0
   -4.7307   -2.6569   -0.5710 C   0  0  0  0  0  0  0  0  0  0  0  0
    2.1225   -1.0549    0.0517 C   0  0  0  0  0  0  0  0  0  0  0  0
    3.3296   -0.3690    0.0402 C   0  0  0  0  0  0  0  0  0  0  0  0
    4.5456   -1.0896   -0.2201 C   0  0  0  0  0  0  0  0  0  0  0  0
    5.7918   -0.5129   -0.2556 C   0  0  0  0  0  0  0  0  0  0  0  0
    4.7805   -2.4519   -0.4858 C   0  0  0  0  0  0  0  0  0  0  0  0
   -2.4615   -2.9094    2.3038 C   0  0  0  0  0  0  0  0  0  0  0  0
   -1.2580    0.1107   -1.4332 H   0  0  0  0  0  0  0  0  0  0  0  0
   -0.4101    3.1090   -1.8075 H   0  0  0  0  0  0  0  0  0  0  0  0
    0.2797    1.6571   -2.6618 H   0  0  0  0  0  0  0  0  0  0  0  0
   -2.0092    1.1381   -3.5456 H   0  0  0  0  0  0  0  0  0  0  0  0
   -2.6684    2.5831   -2.6577 H   0  0  0  0  0  0  0  0  0  0  0  0
   -3.9727    2.0837   -0.7271 H   0  0  0  0  0  0  0  0  0  0  0  0
   -3.8399    1.7479    0.9879 H   0  0  0  0  0  0  0  0  0  0  0  0
    0.5982    4.2697    1.1580 H   0  0  0  0  0  0  0  0  0  0  0  0
   -2.7608   -0.7048    1.4273 H   0  0  0  0  0  0  0  0  0  0  0  0
   -5.2063    0.4359   -1.8888 H   0  0  0  0  0  0  0  0  0  0  0  0
    2.9775    3.5943    0.7778 H   0  0  0  0  0  0  0  0  0  0  0  0
   -0.0046   -0.8584    0.3379 H   0  0  0  0  0  0  0  0  0  0  0  0
   -5.9092   -1.9078   -2.2111 H   0  0  0  0  0  0  0  0  0  0  0  0
    2.0526   -2.1234   -0.1251 H   0  0  0  0  0  0  0  0  0  0  0  0
   -5.0454   -3.6860   -0.7209 H   0  0  0  0  0  0  0  0  0  0  0  0
    6.1439    0.5000   -0.1161 H   0  0  0  0  0  0  0  0  0  0  0  0
    4.0747   -3.2678   -0.5520 H   0  0  0  0  0  0  0  0  0  0  0  0
   -2.1832   -3.8116    2.8584 H   0  0  0  0  0  0  0  0  0  0  0  0
   -2.9394   -2.2306    3.0183 H   0  0  0  0  0  0  0  0  0  0  0  0
   -1.5375   -2.4930    1.8883 H   0  0  0  0  0  0  0  0  0  0  0  0
    7.6691   -1.4699   -0.6306 H   0  0  0  0  0  0  0  0  0  0  0  0
  1 12  2  0  0  0  0
  2 21  1  0  0  0  0
  2 29  1  0  0  0  0
  3  8  1  0  0  0  0
  3 11  1  0  0  0  0
  3 12  1  0  0  0  0
  4 16  1  0  0  0  0
  4 19  1  0  0  0  0
  4 40  1  0  0  0  0
  5 19  1  0  0  0  0
  5 25  2  0  0  0  0
  6  7  1  0  0  0  0
  6 27  1  0  0  0  0
  6 50  1  0  0  0  0
  7 28  2  0  0  0  0
  8  9  1  0  0  0  0
  8 10  1  0  0  0  0
  8 30  1  0  0  0  0
  9 10  1  0  0  0  0
  9 31  1  0  0  0  0
  9 32  1  0  0  0  0
 10 33  1  0  0  0  0
 10 34  1  0  0  0  0
 11 13  1  0  0  0  0
 11 35  1  0  0  0  0
 11 36  1  0  0  0  0
 12 14  1  0  0  0  0
 13 17  2  0  0  0  0
 13 18  1  0  0  0  0
 14 15  1  0  0  0  0
 14 16  2  0  0  0  0
 15 19  2  0  0  0  0
 15 20  1  0  0  0  0
 16 37  1  0  0  0  0
 17 21  1  0  0  0  0
 17 38  1  0  0  0  0
 18 22  2  0  0  0  0
 18 39  1  0  0  0  0
 20 24  2  0  0  0  0
 20 41  1  0  0  0  0
 21 23  2  0  0  0  0
 22 23  1  0  0  0  0
 22 42  1  0  0  0  0
 23 44  1  0  0  0  0
 24 25  1  0  0  0  0
 24 43  1  0  0  0  0
 25 26  1  0  0  0  0
 26 27  2  0  0  0  0
 26 28  1  0  0  0  0
 27 45  1  0  0  0  0
 28 46  1  0  0  0  0
 29 47  1  0  0  0  0
 29 48  1  0  0  0  0
 29 49  1  0  0  0  0
M  END
> <PUBCHEM_COMPOUND_CID>
57400299

> <PUBCHEM_CONFORMER_RMSD>
1

> <PUBCHEM_CONFORMER_DIVERSEORDER>
3
1
133
114
82
120
100
101
117
61
134
108
26
130
139
33
89
111
24
79
25
135
126
43
47
36
127
137
121
49
76
144
138
147
99
148
128
142
51
122
41
136
85
95
103
21
141
70
132
143
98
8
131
68
124
16
52
45
94
129
116
13
110
77
106
23
119
107
115
109
74
78
96
104
12
17
123
92
81
80
97
105
14
64
38
102
44
5
39
46
72
75
37
9
50
71
93
6
18
145
53
91
22
4
73
113
58
146
57
2
19
48
30
86
20
63
140
60
62
59
118
84
54
88
69
28
32
87
90
112
66
15
65
40
83
31
29
10
34
42
27
56
11
125
35
55
7
67

> <PUBCHEM_MMFF94_PARTIAL_CHARGES>
44
1 -0.57
10 -0.2
11 0.44
12 0.72
13 -0.14
14 -0.09
16 -0.3
17 -0.15
18 -0.15
19 0.11
2 -0.36
20 -0.15
21 0.08
22 -0.15
23 -0.15
24 -0.15
25 0.36
26 -0.05
27 -0.3
28 0.14
29 0.28
3 -0.51
30 0.1
31 0.1
32 0.1
33 0.1
34 0.1
37 0.15
38 0.15
39 0.15
4 0.03
40 0.27
41 0.15
42 0.15
43 0.15
44 0.15
45 0.15
46 0.15
5 -0.57
50 0.27
6 0.3
7 -0.71
8 0.05
9 -0.2

> <PUBCHEM_EFFECTIVE_ROTOR_COUNT>
7.6

> <PUBCHEM_PHARMACOPHORE_FEATURES>
11
1 1 acceptor
1 2 acceptor
1 4 cation
1 4 donor
1 5 acceptor
1 6 donor
1 7 acceptor
5 4 14 15 16 19 rings
5 6 7 26 27 28 rings
6 13 17 18 21 22 23 rings
6 5 15 19 20 24 25 rings

> <PUBCHEM_HEAVY_ATOM_COUNT>
29

> <PUBCHEM_ATOM_DEF_STEREO_COUNT>
0

> <PUBCHEM_ATOM_UDEF_STEREO_COUNT>
0

> <PUBCHEM_BOND_DEF_STEREO_COUNT>
0

> <PUBCHEM_BOND_UDEF_STEREO_COUNT>
0

> <PUBCHEM_ISOTOPIC_ATOM_COUNT>
0

> <PUBCHEM_COMPONENT_COUNT>
1

> <PUBCHEM_CACTVS_TAUTO_COUNT>
16

> <PUBCHEM_CONFORMER_ID>
036BDBEB00000003

> <PUBCHEM_MMFF94_ENERGY>
76.2049

> <PUBCHEM_FEATURE_SELFOVERLAP>
55.935

> <PUBCHEM_SHAPE_FINGERPRINT>
10305334 12 17843131303250583609
10622 236 16985441027286276151
11135609 12 17679313120297658457
12107183 9 18130801018946336401
12422481 6 16128384722784808412
12596602 18 15769765901076779583
12633257 1 18201167585306198177
12760667 363 18343302561367106323
13103583 49 17703522033841754073
13402501 40 18410291410769277063
13544653 18 18340488992821332309
1361 4 18055638305615148254
14040221 97 18046055232681437372
14251740 79 18261395507491552307
14866123 147 18200318706737931009
14910302 57 18261099777502418844
14931854 50 18261098648501331807
14950920 106 15697990877163709699
15351339 4 18114174186283158890
15510800 12 18263639735436306259
19315092 285 16342844594732002643
19315958 150 18266456697791752937
19319366 153 17411611798157077840
19958102 18 18041278751832031742
20693207 138 18334848437529934421
20775438 99 17121943261408145887
20775530 9 18333729139283146939
21033650 10 16805590452940024613
21307412 95 18261385668423214263
21401589 2 9943808902346553839
221490 88 18339364170687654144
22393880 68 18188196637484415561
23428019 142 17894634746809570330
23466295 7 18115045094223711219
23559900 14 18339913913885912241
25025965 108 17628896973006972558
2838139 119 8286204933276532594
329604 57 18412267233749426894
4280585 95 17821720676188858332
437815 12 18341888593571435151
484985 159 18200311009834594351
497634 4 18338520733747894844
5486654 36 18411992342667482873
6431902 208 18343022190070702078
6695519 79 17190107553296040577
7970288 3 18201152161899829534
9709674 26 18265046024098698105
9862886 166 18260829293916750106

> <PUBCHEM_SHAPE_MULTIPOLES>
560.16
12.72
4.11
1.78
12.46
0.57
0.33
13.35
3.82
-0.76
-1.11
-1.82
-0.53
1.97

> <PUBCHEM_SHAPE_SELFOVERLAP>
1244.442

> <PUBCHEM_SHAPE_VOLUME>
300.5

> <PUBCHEM_COORDINATE_TYPE>
2
5
10

$$$$
57396872
  -OEChem-05102415093D

 49 52  0     0  0  0  0  0  0999 V2000
    1.7805    1.3220    2.0433 O   0  0  0  0  0  0  0  0  0  0  0  0
    3.9624   -3.1657    1.1860 O   0  0  0  0  0  0  0  0  0  0  0  0
    2.1680    1.7244   -0.2264 N   0  0  0  0  0  0  0  0  0  0  0  0
   -2.0593    2.8109    0.7282 N   0  0  0  0  0  0  0  0  0  0  0  0
   -3.5083    0.9529    0.2261 N   0  0  0  0  0  0  0  0  0  0  0  0
   -6.8844   -1.2414   -0.5638 N   0  0  0  0  0  0  0  0  0  0  0  0
   -6.4003   -2.4843   -0.7286 N   0  0  0  0  0  0  0  0  0  0  0  0
   -0.0811    1.7938    0.7806 C   0  0  0  0  0  0  0  0  0  0  0  0
    3.6092    1.5280   -0.1578 C   0  0  0  0  0  0  0  0  0  0  0  0
   -1.0739    0.8210    0.4900 C   0  0  0  0  0  0  0  0  0  0  0  0
    1.3351    1.6034    0.9130 C   0  0  0  0  0  0  0  0  0  0  0  0
    1.6366    2.0545   -1.5472 C   0  0  0  0  0  0  0  0  0  0  0  0
   -2.2957    1.4873    0.4645 C   0  0  0  0  0  0  0  0  0  0  0  0
    3.9972    0.1071   -0.4485 C   0  0  0  0  0  0  0  0  0  0  0  0
   -0.7168    3.0085    0.9219 C   0  0  0  0  0  0  0  0  0  0  0  0
   -1.0864   -0.5611    0.2423 C   0  0  0  0  0  0  0  0  0  0  0  0
   -3.4607   -0.3796   -0.0057 C   0  0  0  0  0  0  0  0  0  0  0  0
    1.6088    3.5516   -1.7755 C   0  0  0  0  0  0  0  0  0  0  0  0
   -2.3163   -1.1658   -0.0107 C   0  0  0  0  0  0  0  0  0  0  0  0
    3.7965   -0.8815    0.5149 C   0  0  0  0  0  0  0  0  0  0  0  0
    4.5589   -0.2245   -1.6816 C   0  0  0  0  0  0  0  0  0  0  0  0
   -4.7353   -0.9908   -0.2656 C   0  0  0  0  0  0  0  0  0  0  0  0
    4.1575   -2.2017    0.2452 C   0  0  0  0  0  0  0  0  0  0  0  0
    4.9201   -1.5445   -1.9511 C   0  0  0  0  0  0  0  0  0  0  0  0
    4.7191   -2.5332   -0.9879 C   0  0  0  0  0  0  0  0  0  0  0  0
   -5.9280   -0.3099   -0.2847 C   0  0  0  0  0  0  0  0  0  0  0  0
   -5.0870   -2.3249   -0.5452 C   0  0  0  0  0  0  0  0  0  0  0  0
    3.3837   -2.7565    2.4244 C   0  0  0  0  0  0  0  0  0  0  0  0
    3.9564    1.7876    0.8501 H   0  0  0  0  0  0  0  0  0  0  0  0
    4.1063    2.2293   -0.8385 H   0  0  0  0  0  0  0  0  0  0  0  0
    2.2467    1.5682   -2.3158 H   0  0  0  0  0  0  0  0  0  0  0  0
    0.6259    1.6531   -1.6603 H   0  0  0  0  0  0  0  0  0  0  0  0
   -0.3377    3.9960    1.1464 H   0  0  0  0  0  0  0  0  0  0  0  0
   -2.7674    3.5305    0.7734 H   0  0  0  0  0  0  0  0  0  0  0  0
   -0.1720   -1.1459    0.2455 H   0  0  0  0  0  0  0  0  0  0  0  0
    1.0076    4.0732   -1.0272 H   0  0  0  0  0  0  0  0  0  0  0  0
    2.6182    3.9743   -1.7355 H   0  0  0  0  0  0  0  0  0  0  0  0
    1.1902    3.7758   -2.7617 H   0  0  0  0  0  0  0  0  0  0  0  0
   -2.3385   -2.2336   -0.2038 H   0  0  0  0  0  0  0  0  0  0  0  0
    3.3722   -0.5736    1.4624 H   0  0  0  0  0  0  0  0  0  0  0  0
    4.7208    0.5355   -2.4414 H   0  0  0  0  0  0  0  0  0  0  0  0
    5.3575   -1.8027   -2.9111 H   0  0  0  0  0  0  0  0  0  0  0  0
    5.0024   -3.5598   -1.2036 H   0  0  0  0  0  0  0  0  0  0  0  0
   -6.1917    0.7275   -0.1305 H   0  0  0  0  0  0  0  0  0  0  0  0
   -4.4536   -3.1970   -0.6261 H   0  0  0  0  0  0  0  0  0  0  0  0
   -7.8825   -1.0992   -0.6560 H   0  0  0  0  0  0  0  0  0  0  0  0
    4.0322   -2.0545    2.9596 H   0  0  0  0  0  0  0  0  0  0  0  0
    2.3703   -2.3642    2.2859 H   0  0  0  0  0  0  0  0  0  0  0  0
    3.2963   -3.6504    3.0507 H   0  0  0  0  0  0  0  0  0  0  0  0
  1 11  2  0  0  0  0
  2 23  1  0  0  0  0
  2 28  1  0  0  0  0
  3  9  1  0  0  0  0
  3 11  1  0  0  0  0
  3 12  1  0  0  0  0
  4 13  1  0  0  0  0
  4 15  1  0  0  0  0
  4 34  1  0  0  0  0
  5 13  1  0  0  0  0
  5 17  2  0  0  0  0
  6  7  1  0  0  0  0
  6 26  1  0  0  0  0
  6 46  1  0  0  0  0
  7 27  2  0  0  0  0
  8 10  1  0  0  0  0
  8 11  1  0  0  0  0
  8 15  2  0  0  0  0
  9 14  1  0  0  0  0
  9 29  1  0  0  0  0
  9 30  1  0  0  0  0
 10 13  2  0  0  0  0
 10 16  1  0  0  0  0
 12 18  1  0  0  0  0
 12 31  1  0  0  0  0
 12 32  1  0  0  0  0
 14 20  2  0  0  0  0
 14 21  1  0  0  0  0
 15 33  1  0  0  0  0
 16 19  2  0  0  0  0
 16 35  1  0  0  0  0
 17 19  1  0  0  0  0
 17 22  1  0  0  0  0
 18 36  1  0  0  0  0
 18 37  1  0  0  0  0
 18 38  1  0  0  0  0
 19 39  1  0  0  0  0
 20 23  1  0  0  0  0
 20 40  1  0  0  0  0
 21 24  2  0  0  0  0
 21 41  1  0  0  0  0
 22 26  2  0  0  0  0
 22 27  1  0  0  0  0
 23 25  2  0  0  0  0
 24 25  1  0  0  0  0
 24 42  1  0  0  0  0
 25 43  1  0  0  0  0
 26 44  1  0  0  0  0
 27 45  1  0  0  0  0
 28 47  1  0  0  0  0
 28 48  1  0  0  0  0
 28 49  1  0  0  0  0
M  END
> <PUBCHEM_COMPOUND_CID>
57396872

> <PUBCHEM_CONFORMER_RMSD>
0.8

> <PUBCHEM_CONFORMER_DIVERSEORDER>
1
67
60
336
24
251
331
32
319
111
231
160
163
312
235
37
112
220
43
229
338
206
302
15
337
304
310
225
250
74
207
144
90
339
191
341
335
7
292
31
357
91
281
99
286
97
185
297
11
275
172
261
257
164
311
61
79
283
115
72
313
327
268
155
315
298
203
262
199
317
290
184
252
353
349
265
98
44
239
183
201
151
361
307
88
96
288
181
221
351
328
323
280
180
161
329
157
113
8
222
14
107
345
241
245
354
121
150
138
342
64
194
137
240
167
58
141
324
346
228
102
108
166
263
145
187
26
210
234
25
68
200
93
134
244
301
168
233
215
344
219
36
213
224
202
120
21
52
285
289
40
253
114
116
158
38
143
49
76
30
125
282
248
124
291
277
16
29
71
174
217
255
132
269
127
303
94
197
173
153
169
171
118
332
65
306
296
109
340
350
258
325
56
299
230
95
287
142
309
48
260
131
18
87
321
34
355
216
284
22
119
130
237
63
182
320
293
318
352
211
279
50
347
212
92
218
28
186
73
57
188
51
46
189
159
273
81
208
54
80
334
135
62
53
89
23
308
330
178
256
165
105
110
17
209
147
33
82
198
246
55
348
175
78
35
249
322
259
123
106
84
149
333
9
27
196
39
177
103
117
266
156
274
75
360
13
271
295
305
264
214
170
179
243
20
83
343
70
148
126
316
226
223
278
314
45
133
4
139
192
10
146
238
272
59
356
254
242
247
300
129
359
42
77
162
236
2
232
267
270
12
69
195
190
5
358
66
294
276
104
101
205
122
100
326
176
152
41
128
3
47
86
204
19
140
6
154
227
193
85
136

> <PUBCHEM_MMFF94_PARTIAL_CHARGES>
37
1 -0.57
11 0.72
12 0.3
13 0.11
14 -0.14
15 -0.3
16 -0.15
17 0.36
19 -0.15
2 -0.36
20 -0.15
21 -0.15
22 -0.05
23 0.08
24 -0.15
25 -0.15
26 -0.3
27 0.14
28 0.28
3 -0.66
33 0.15
34 0.27
35 0.15
39 0.15
4 0.03
40 0.15
41 0.15
42 0.15
43 0.15
44 0.15
45 0.15
46 0.27
5 -0.57
6 0.3
7 -0.71
8 -0.09
9 0.44

> <PUBCHEM_EFFECTIVE_ROTOR_COUNT>
7

> <PUBCHEM_PHARMACOPHORE_FEATURES>
11
1 1 acceptor
1 2 acceptor
1 4 cation
1 4 donor
1 5 acceptor
1 6 donor
1 7 acceptor
5 4 8 10 13 15 rings
5 6 7 22 26 27 rings
6 14 20 21 23 24 25 rings
6 5 10 13 16 17 19 rings

> <PUBCHEM_HEAVY_ATOM_COUNT>
28

> <PUBCHEM_ATOM_DEF_STEREO_COUNT>
0

> <PUBCHEM_ATOM_UDEF_STEREO_COUNT>
0

> <PUBCHEM_BOND_DEF_STEREO_COUNT>
0

> <PUBCHEM_BOND_UDEF_STEREO_COUNT>
0

> <PUBCHEM_ISOTOPIC_ATOM_COUNT>
0

> <PUBCHEM_COMPONENT_COUNT>
1

> <PUBCHEM_CACTVS_TAUTO_COUNT>
16

> <PUBCHEM_CONFORMER_ID>
036BCE8800000001

> <PUBCHEM_MMFF94_ENERGY>
70.9448

> <PUBCHEM_FEATURE_SELFOVERLAP>
55.935

> <PUBCHEM_SHAPE_FINGERPRINT>
10622 236 18117270355281733594
10693767 8 18130494349691844103
117089 54 18057902246499675758
11796584 16 18200036114500212012
11991303 11 17972882454532305829
12047536 79 16200426958035276723
12166972 35 18259991474260899519
12422481 6 16773798091375922551
13533116 47 18342741861644141437
13631057 29 18272099262642568580
14251740 57 18131070437496191854
14347332 77 18336541638724572141
14866123 147 18058461907013731657
14931854 50 18261684701004639278
15001296 14 18338230587074185103
15003188 105 18335133190257924882
15183329 4 18413390921879811805
15324115 91 16660353771372310418
15664445 248 18041838540578597724
17134984 74 18114464564747646114
17492 89 18200316511682731278
1813 80 18186792573994507681
19026451 147 18114172000608619314
20626108 58 18339925918303433476
21279426 13 18412256225932941429
21304303 94 17822288002635242914
21585483 132 17485907938657527583
21703447 108 18343013428342920760
23559900 14 18337672026756116535
25222932 49 17486487388961760509
2838139 119 11530771447874991764
3004659 81 18410295838853581405
34797466 226 16878786157750636853
4017518 198 15739921441032885402
46194498 28 17750231572559741429
463206 1 18198903793522420495
5104073 3 17632297852216577353
5951187 136 12613043773164114062
59682541 52 17385434415164332351
960060 61 17894919511952021462

> <PUBCHEM_SHAPE_MULTIPOLES>
539.58
14.01
4.05
1.66
16.05
0.67
-0.19
-14.03
4.89
-2.01
-0.18
-2.39
-0.18
-2.06

> <PUBCHEM_SHAPE_SELFOVERLAP>
1187.759

> <PUBCHEM_SHAPE_VOLUME>
291.9

> <PUBCHEM_COORDINATE_TYPE>
2
5
10

$$$$
57402103
  -OEChem-05102415093D

 69 73  0     0  0  0  0  0  0999 V2000
    2.4913    0.5010   -2.6138 O   0  0  0  0  0  0  0  0  0  0  0  0
    5.3327    3.1507    0.6920 O   0  0  0  0  0  0  0  0  0  0  0  0
   -0.9196   -3.3449    0.5734 N   0  0  0  0  0  0  0  0  0  0  0  0
   -3.7677   -3.1865    1.0440 N   0  0  0  0  0  0  0  0  0  0  0  0
    2.4165   -1.1109   -0.8938 N   0  0  0  0  0  0  0  0  0  0  0  0
   -1.7145   -0.4872   -2.4659 N   0  0  0  0  0  0  0  0  0  0  0  0
   -2.8680    1.1231   -1.0948 N   0  0  0  0  0  0  0  0  0  0  0  0
   -5.8776    3.3196    0.6241 N   0  0  0  0  0  0  0  0  0  0  0  0
   -5.2112    4.1393    1.4549 N   0  0  0  0  0  0  0  0  0  0  0  0
   -1.8829   -3.5033   -0.5229 C   0  0  0  0  0  0  0  0  0  0  0  0
   -1.5086   -3.7921    1.8414 C   0  0  0  0  0  0  0  0  0  0  0  0
   -3.1788   -2.7412   -0.2249 C   0  0  0  0  0  0  0  0  0  0  0  0
   -2.8037   -3.0289    2.1400 C   0  0  0  0  0  0  0  0  0  0  0  0
    0.3150   -4.0736    0.2889 C   0  0  0  0  0  0  0  0  0  0  0  0
    1.2159   -3.2485   -0.6316 C   0  0  0  0  0  0  0  0  0  0  0  0
    1.5889   -1.8998   -0.0229 C   0  0  0  0  0  0  0  0  0  0  0  0
   -5.0012   -2.4559    1.3284 C   0  0  0  0  0  0  0  0  0  0  0  0
    3.8660   -1.2888   -0.7576 C   0  0  0  0  0  0  0  0  0  0  0  0
    1.8627   -0.2114   -1.8317 C   0  0  0  0  0  0  0  0  0  0  0  0
    0.3964   -0.0962   -1.8809 C   0  0  0  0  0  0  0  0  0  0  0  0
    4.4490   -0.3756    0.2817 C   0  0  0  0  0  0  0  0  0  0  0  0
   -0.4393    0.7883   -1.1491 C   0  0  0  0  0  0  0  0  0  0  0  0
   -0.4158   -0.8688   -2.6827 C   0  0  0  0  0  0  0  0  0  0  0  0
   -1.7487    0.5191   -1.5368 C   0  0  0  0  0  0  0  0  0  0  0  0
    4.6215    0.9799    0.0013 C   0  0  0  0  0  0  0  0  0  0  0  0
    4.8189   -0.8827    1.5276 C   0  0  0  0  0  0  0  0  0  0  0  0
   -0.2432    1.7978   -0.1928 C   0  0  0  0  0  0  0  0  0  0  0  0
    5.1637    1.8284    0.9666 C   0  0  0  0  0  0  0  0  0  0  0  0
   -2.6199    2.0857   -0.1764 C   0  0  0  0  0  0  0  0  0  0  0  0
   -1.3690    2.4561    0.2988 C   0  0  0  0  0  0  0  0  0  0  0  0
    5.3613   -0.0343    2.4928 C   0  0  0  0  0  0  0  0  0  0  0  0
    5.5335    1.3213    2.2125 C   0  0  0  0  0  0  0  0  0  0  0  0
   -3.7889    2.7565    0.3225 C   0  0  0  0  0  0  0  0  0  0  0  0
   -5.0718    2.4716   -0.0772 C   0  0  0  0  0  0  0  0  0  0  0  0
   -3.9358    3.7906    1.2663 C   0  0  0  0  0  0  0  0  0  0  0  0
    4.9330    3.6013   -0.6015 C   0  0  0  0  0  0  0  0  0  0  0  0
   -2.1204   -4.5652   -0.6774 H   0  0  0  0  0  0  0  0  0  0  0  0
   -1.4736   -3.1361   -1.4660 H   0  0  0  0  0  0  0  0  0  0  0  0
   -0.8075   -3.6058    2.6641 H   0  0  0  0  0  0  0  0  0  0  0  0
   -1.7099   -4.8717    1.8198 H   0  0  0  0  0  0  0  0  0  0  0  0
   -3.8834   -2.9192   -1.0461 H   0  0  0  0  0  0  0  0  0  0  0  0
   -2.9790   -1.6653   -0.1877 H   0  0  0  0  0  0  0  0  0  0  0  0
   -2.5755   -1.9680    2.3111 H   0  0  0  0  0  0  0  0  0  0  0  0
   -3.2310   -3.4250    3.0692 H   0  0  0  0  0  0  0  0  0  0  0  0
    0.1205   -5.0622   -0.1454 H   0  0  0  0  0  0  0  0  0  0  0  0
    0.8768   -4.2492    1.2161 H   0  0  0  0  0  0  0  0  0  0  0  0
    0.7567   -3.1276   -1.6163 H   0  0  0  0  0  0  0  0  0  0  0  0
    2.1335   -3.8233   -0.8128 H   0  0  0  0  0  0  0  0  0  0  0  0
    2.1223   -2.0603    0.9219 H   0  0  0  0  0  0  0  0  0  0  0  0
    0.6935   -1.3366    0.2501 H   0  0  0  0  0  0  0  0  0  0  0  0
   -4.8308   -1.3779    1.4313 H   0  0  0  0  0  0  0  0  0  0  0  0
   -5.7341   -2.6138    0.5295 H   0  0  0  0  0  0  0  0  0  0  0  0
   -5.4605   -2.8222    2.2532 H   0  0  0  0  0  0  0  0  0  0  0  0
    4.3381   -1.0701   -1.7236 H   0  0  0  0  0  0  0  0  0  0  0  0
    4.0831   -2.3414   -0.5413 H   0  0  0  0  0  0  0  0  0  0  0  0
   -0.1890   -1.6522   -3.3924 H   0  0  0  0  0  0  0  0  0  0  0  0
    4.3321    1.3232   -0.9845 H   0  0  0  0  0  0  0  0  0  0  0  0
   -2.5236   -0.8873   -2.9202 H   0  0  0  0  0  0  0  0  0  0  0  0
    4.6896   -1.9365    1.7595 H   0  0  0  0  0  0  0  0  0  0  0  0
    0.7497    2.0616    0.1573 H   0  0  0  0  0  0  0  0  0  0  0  0
   -1.2300    3.2379    1.0386 H   0  0  0  0  0  0  0  0  0  0  0  0
    5.6492   -0.4290    3.4628 H   0  0  0  0  0  0  0  0  0  0  0  0
    5.9565    1.9773    2.9684 H   0  0  0  0  0  0  0  0  0  0  0  0
   -5.4890    1.7621   -0.7787 H   0  0  0  0  0  0  0  0  0  0  0  0
   -3.1777    4.3138    1.8317 H   0  0  0  0  0  0  0  0  0  0  0  0
   -6.8866    3.3925    0.5853 H   0  0  0  0  0  0  0  0  0  0  0  0
    5.1338    4.6768   -0.6448 H   0  0  0  0  0  0  0  0  0  0  0  0
    3.8567    3.4714   -0.7589 H   0  0  0  0  0  0  0  0  0  0  0  0
    5.5288    3.1336   -1.3927 H   0  0  0  0  0  0  0  0  0  0  0  0
  1 19  2  0  0  0  0
  2 28  1  0  0  0  0
  2 36  1  0  0  0  0
  3 10  1  0  0  0  0
  3 11  1  0  0  0  0
  3 14  1  0  0  0  0
  4 12  1  0  0  0  0
  4 13  1  0  0  0  0
  4 17  1  0  0  0  0
  5 16  1  0  0  0  0
  5 18  1  0  0  0  0
  5 19  1  0  0  0  0
  6 23  1  0  0  0  0
  6 24  1  0  0  0  0
  6 58  1  0  0  0  0
  7 24  1  0  0  0  0
  7 29  2  0  0  0  0
  8  9  1  0  0  0  0
  8 34  1  0  0  0  0
  8 66  1  0  0  0  0
  9 35  2  0  0  0  0
 10 12  1  0  0  0  0
 10 37  1  0  0  0  0
 10 38  1  0  0  0  0
 11 13  1  0  0  0  0
 11 39  1  0  0  0  0
 11 40  1  0  0  0  0
 12 41  1  0  0  0  0
 12 42  1  0  0  0  0
 13 43  1  0  0  0  0
 13 44  1  0  0  0  0
 14 15  1  0  0  0  0
 14 45  1  0  0  0  0
 14 46  1  0  0  0  0
 15 16  1  0  0  0  0
 15 47  1  0  0  0  0
 15 48  1  0  0  0  0
 16 49  1  0  0  0  0
 16 50  1  0  0  0  0
 17 51  1  0  0  0  0
 17 52  1  0  0  0  0
 17 53  1  0  0  0  0
 18 21  1  0  0  0  0
 18 54  1  0  0  0  0
 18 55  1  0  0  0  0
 19 20  1  0  0  0  0
 20 22  1  0  0  0  0
 20 23  2  0  0  0  0
 21 25  2  0  0  0  0
 21 26  1  0  0  0  0
 22 24  2  0  0  0  0
 22 27  1  0  0  0  0
 23 56  1  0  0  0  0
 25 28  1  0  0  0  0
 25 57  1  0  0  0  0
 26 31  2  0  0  0  0
 26 59  1  0  0  0  0
 27 30  2  0  0  0  0
 27 60  1  0  0  0  0
 28 32  2  0  0  0  0
 29 30  1  0  0  0  0
 29 33  1  0  0  0  0
 30 61  1  0  0  0  0
 31 32  1  0  0  0  0
 31 62  1  0  0  0  0
 32 63  1  0  0  0  0
 33 34  2  0  0  0  0
 33 35  1  0  0  0  0
 34 64  1  0  0  0  0
 35 65  1  0  0  0  0
 36 67  1  0  0  0  0
 36 68  1  0  0  0  0
 36 69  1  0  0  0  0
M  END
> <PUBCHEM_COMPOUND_CID>
57402103

> <PUBCHEM_CONFORMER_RMSD>
1.2

> <PUBCHEM_CONFORMER_DIVERSEORDER>
1
30
128
39
123
108
114
129
59
16
57
40
41
97
96
105
83
88
60
86
8
43
19
29
80
95
63
100
104
118
82
55
14
98
109
89
49
103
50
61
2
81
78
70
112
77
17
116
52
15
53
28
10
126
12
92
94
132
91
113
51
68
79
54
35
84
44
67
69
85
42
34
76
27
11
25
106
38
93
31
45
47
75
56
90
71
64
124
119
87
20
32
110
74
65
125
24
37
22
4
102
99
18
115
117
107
131
46
101
66
130
58
33
48
122
26
120
3
23
127
111
73
72
121
13
21
36
62
9
6
7
5

> <PUBCHEM_MMFF94_PARTIAL_CHARGES>
45
1 -0.57
10 0.27
11 0.27
12 0.27
13 0.27
14 0.27
16 0.3
17 0.27
18 0.44
19 0.72
2 -0.36
20 -0.09
21 -0.14
23 -0.3
24 0.11
25 -0.15
26 -0.15
27 -0.15
28 0.08
29 0.36
3 -0.81
30 -0.15
31 -0.15
32 -0.15
33 -0.05
34 -0.3
35 0.14
36 0.28
4 -0.81
5 -0.66
56 0.15
57 0.15
58 0.27
59 0.15
6 0.03
60 0.15
61 0.15
62 0.15
63 0.15
64 0.15
65 0.15
66 0.27
7 -0.57
8 0.3
9 -0.71

> <PUBCHEM_EFFECTIVE_ROTOR_COUNT>
11.2

> <PUBCHEM_PHARMACOPHORE_FEATURES>
14
1 1 acceptor
1 2 acceptor
1 3 cation
1 4 cation
1 6 cation
1 6 donor
1 7 acceptor
1 8 donor
1 9 acceptor
5 6 20 22 23 24 rings
5 8 9 33 34 35 rings
6 21 25 26 28 31 32 rings
6 3 4 10 11 12 13 rings
6 7 22 24 27 29 30 rings

> <PUBCHEM_HEAVY_ATOM_COUNT>
36

> <PUBCHEM_ATOM_DEF_STEREO_COUNT>
0

> <PUBCHEM_ATOM_UDEF_STEREO_COUNT>
0

> <PUBCHEM_BOND_DEF_STEREO_COUNT>
0

> <PUBCHEM_BOND_UDEF_STEREO_COUNT>
0

> <PUBCHEM_ISOTOPIC_ATOM_COUNT>
0

> <PUBCHEM_COMPONENT_COUNT>
1

> <PUBCHEM_CACTVS_TAUTO_COUNT>
16

> <PUBCHEM_CONFORMER_ID>
036BE2F700000001

> <PUBCHEM_MMFF94_ENERGY>
85.5712

> <PUBCHEM_FEATURE_SELFOVERLAP>
71.163

> <PUBCHEM_SHAPE_FINGERPRINT>
10305334 12 18339909420822151961
11070050 100 18192992608557664202
12422481 6 17458632146899075051
12788726 201 18119835722077873167
13583140 156 17543905707447043765
14020679 6 18341886377363432057
14705955 166 18268418204364238762
14950920 106 18261095380036150144
15338160 23 18337388361451807432
16114785 44 18058431244361366894
17852330 28 15148220559339353624
18603816 31 14566134830830304976
19438510 23 17845357878283554698
244849 19 18059868220903570134
392239 28 18194670704210312542
57527585 21 18056182812450544828
6376802 137 18050546728500052919
653340 110 18410017649680216147

> <PUBCHEM_SHAPE_MULTIPOLES>
694.26
12.74
6.28
2.37
7.16
0.6
0.4
-11.65
-8.19
-7.94
-2.91
0.89
0.5
0.34

> <PUBCHEM_SHAPE_SELFOVERLAP>
1502.181

> <PUBCHEM_SHAPE_VOLUME>
382.5

> <PUBCHEM_COORDINATE_TYPE>
2
5
10

$$$$
54765021
  -OEChem-05102415093D

 61 65  0     0  0  0  0  0  0999 V2000
    2.5582   -1.0350   -1.6116 O   0  0  0  0  0  0  0  0  0  0  0  0
    7.4580   -1.5536    0.5477 O   0  0  0  0  0  0  0  0  0  0  0  0
   -4.1405    3.2843    0.2071 N   0  0  0  0  0  0  0  0  0  0  0  0
   -1.1628    0.9443    0.1306 N   0  0  0  0  0  0  0  0  0  0  0  0
   -2.5457   -1.0272    0.1912 N   0  0  0  0  0  0  0  0  0  0  0  0
    2.8228    1.2306   -1.1950 N   0  0  0  0  0  0  0  0  0  0  0  0
   -5.7650   -3.5001    0.7868 N   0  0  0  0  0  0  0  0  0  0  0  0
   -5.3056   -4.6929    0.3713 N   0  0  0  0  0  0  0  0  0  0  0  0
   -5.1804    2.6200    0.9923 C   0  0  0  0  0  0  0  0  0  0  0  0
   -4.8620    4.0384   -0.8176 C   0  0  0  0  0  0  0  0  0  0  0  0
   -6.2354    3.7054    1.1472 C   0  0  0  0  0  0  0  0  0  0  0  0
   -6.0285    4.6355   -0.0442 C   0  0  0  0  0  0  0  0  0  0  0  0
   -3.1882    2.3429   -0.3629 C   0  0  0  0  0  0  0  0  0  0  0  0
   -2.1589    1.9297    0.6884 C   0  0  0  0  0  0  0  0  0  0  0  0
   -1.3896   -0.3909   -0.0761 C   0  0  0  0  0  0  0  0  0  0  0  0
    0.1166    1.2575   -0.2489 C   0  0  0  0  0  0  0  0  0  0  0  0
   -0.2264   -0.9464   -0.6009 C   0  0  0  0  0  0  0  0  0  0  0  0
    0.7209    0.1062   -0.7061 C   0  0  0  0  0  0  0  0  0  0  0  0
   -0.2400   -2.3205   -0.8901 C   0  0  0  0  0  0  0  0  0  0  0  0
    2.0705    0.0398   -1.1893 C   0  0  0  0  0  0  0  0  0  0  0  0
   -2.5020   -2.3468   -0.1065 C   0  0  0  0  0  0  0  0  0  0  0  0
   -1.4126   -3.0282   -0.6325 C   0  0  0  0  0  0  0  0  0  0  0  0
   -3.7172   -3.0645    0.1643 C   0  0  0  0  0  0  0  0  0  0  0  0
    4.1839    1.3309   -1.6709 C   0  0  0  0  0  0  0  0  0  0  0  0
    5.1814    1.0800   -0.5772 C   0  0  0  0  0  0  0  0  0  0  0  0
   -4.8525   -2.4917    0.6836 C   0  0  0  0  0  0  0  0  0  0  0  0
   -4.0543   -4.4204   -0.0078 C   0  0  0  0  0  0  0  0  0  0  0  0
    5.8654   -0.1344   -0.5222 C   0  0  0  0  0  0  0  0  0  0  0  0
    5.4238    2.0611    0.3845 C   0  0  0  0  0  0  0  0  0  0  0  0
    6.7918   -0.3680    0.4941 C   0  0  0  0  0  0  0  0  0  0  0  0
    6.3499    1.8274    1.4011 C   0  0  0  0  0  0  0  0  0  0  0  0
    7.0341    0.6131    1.4558 C   0  0  0  0  0  0  0  0  0  0  0  0
    8.3903   -1.7266    1.6141 C   0  0  0  0  0  0  0  0  0  0  0  0
   -5.6114    1.7620    0.4602 H   0  0  0  0  0  0  0  0  0  0  0  0
   -4.8188    2.2792    1.9672 H   0  0  0  0  0  0  0  0  0  0  0  0
   -4.2413    4.8163   -1.2734 H   0  0  0  0  0  0  0  0  0  0  0  0
   -5.2402    3.3816   -1.6117 H   0  0  0  0  0  0  0  0  0  0  0  0
   -6.0886    4.2610    2.0808 H   0  0  0  0  0  0  0  0  0  0  0  0
   -7.2458    3.2844    1.1623 H   0  0  0  0  0  0  0  0  0  0  0  0
   -6.9275    4.7054   -0.6649 H   0  0  0  0  0  0  0  0  0  0  0  0
   -5.7854    5.6439    0.3107 H   0  0  0  0  0  0  0  0  0  0  0  0
   -2.6403    2.8251   -1.1841 H   0  0  0  0  0  0  0  0  0  0  0  0
   -3.6864    1.4701   -0.8039 H   0  0  0  0  0  0  0  0  0  0  0  0
   -2.6093    1.4237    1.5495 H   0  0  0  0  0  0  0  0  0  0  0  0
   -1.5743    2.7837    1.0491 H   0  0  0  0  0  0  0  0  0  0  0  0
    0.4687    2.2759   -0.1559 H   0  0  0  0  0  0  0  0  0  0  0  0
    0.6256   -2.8294   -1.3009 H   0  0  0  0  0  0  0  0  0  0  0  0
   -1.4353   -4.0909   -0.8519 H   0  0  0  0  0  0  0  0  0  0  0  0
    2.4133    2.0871   -0.8392 H   0  0  0  0  0  0  0  0  0  0  0  0
    4.3206    2.3389   -2.0790 H   0  0  0  0  0  0  0  0  0  0  0  0
    4.3263    0.6280   -2.4997 H   0  0  0  0  0  0  0  0  0  0  0  0
   -5.1019   -1.4837    0.9859 H   0  0  0  0  0  0  0  0  0  0  0  0
   -3.4522   -5.2318   -0.3916 H   0  0  0  0  0  0  0  0  0  0  0  0
    5.6809   -0.9049   -1.2669 H   0  0  0  0  0  0  0  0  0  0  0  0
   -6.7156   -3.4454    1.1306 H   0  0  0  0  0  0  0  0  0  0  0  0
    4.8967    3.0110    0.3521 H   0  0  0  0  0  0  0  0  0  0  0  0
    6.5377    2.5919    2.1495 H   0  0  0  0  0  0  0  0  0  0  0  0
    7.7394    0.4979    2.2717 H   0  0  0  0  0  0  0  0  0  0  0  0
    8.8273   -2.7244    1.5026 H   0  0  0  0  0  0  0  0  0  0  0  0
    7.8942   -1.7020    2.5902 H   0  0  0  0  0  0  0  0  0  0  0  0
    9.2141   -1.0077    1.5488 H   0  0  0  0  0  0  0  0  0  0  0  0
  1 20  2  0  0  0  0
  2 30  1  0  0  0  0
  2 33  1  0  0  0  0
  3  9  1  0  0  0  0
  3 10  1  0  0  0  0
  3 13  1  0  0  0  0
  4 14  1  0  0  0  0
  4 15  1  0  0  0  0
  4 16  1  0  0  0  0
  5 15  1  0  0  0  0
  5 21  2  0  0  0  0
  6 20  1  0  0  0  0
  6 24  1  0  0  0  0
  6 49  1  0  0  0  0
  7  8  1  0  0  0  0
  7 26  1  0  0  0  0
  7 55  1  0  0  0  0
  8 27  2  0  0  0  0
  9 11  1  0  0  0  0
  9 34  1  0  0  0  0
  9 35  1  0  0  0  0
 10 12  1  0  0  0  0
 10 36  1  0  0  0  0
 10 37  1  0  0  0  0
 11 12  1  0  0  0  0
 11 38  1  0  0  0  0
 11 39  1  0  0  0  0
 12 40  1  0  0  0  0
 12 41  1  0  0  0  0
 13 14  1  0  0  0  0
 13 42  1  0  0  0  0
 13 43  1  0  0  0  0
 14 44  1  0  0  0  0
 14 45  1  0  0  0  0
 15 17  2  0  0  0  0
 16 18  2  0  0  0  0
 16 46  1  0  0  0  0
 17 18  1  0  0  0  0
 17 19  1  0  0  0  0
 18 20  1  0  0  0  0
 19 22  2  0  0  0  0
 19 47  1  0  0  0  0
 21 22  1  0  0  0  0
 21 23  1  0  0  0  0
 22 48  1  0  0  0  0
 23 26  2  0  0  0  0
 23 27  1  0  0  0  0
 24 25  1  0  0  0  0
 24 50  1  0  0  0  0
 24 51  1  0  0  0  0
 25 28  2  0  0  0  0
 25 29  1  0  0  0  0
 26 52  1  0  0  0  0
 27 53  1  0  0  0  0
 28 30  1  0  0  0  0
 28 54  1  0  0  0  0
 29 31  2  0  0  0  0
 29 56  1  0  0  0  0
 30 32  2  0  0  0  0
 31 32  1  0  0  0  0
 31 57  1  0  0  0  0
 32 58  1  0  0  0  0
 33 59  1  0  0  0  0
 33 60  1  0  0  0  0
 33 61  1  0  0  0  0
M  END
> <PUBCHEM_COMPOUND_CID>
54765021

> <PUBCHEM_CONFORMER_RMSD>
1

> <PUBCHEM_CONFORMER_DIVERSEORDER>
1
34
51
159
23
128
70
141
139
120
80
138
150
95
157
144
28
147
123
115
57
19
54
75
79
63
93
109
158
142
146
16
38
145
154
67
86
32
107
136
156
151
118
15
61
134
99
71
155
58
112
152
108
135
92
43
89
111
9
149
153
110
91
97
119
126
72
17
140
39
49
105
84
56
73
76
129
113
77
116
78
41
94
101
121
148
124
69
143
87
29
132
88
47
96
60
35
55
133
74
127
125
5
100
98
40
10
30
64
62
82
53
122
103
46
52
102
83
65
31
131
14
160
27
130
106
13
137
37
114
25
18
85
44
7
21
8
81
26
66
68
22
117
33
36
59
48
45
4
24
11
104
50
20
90
12
6
3
2
42

> <PUBCHEM_MMFF94_PARTIAL_CHARGES>
41
1 -0.57
10 0.27
13 0.27
14 0.26
15 0.11
16 -0.3
18 -0.09
19 -0.15
2 -0.36
20 0.72
21 0.36
22 -0.15
23 -0.05
24 0.44
25 -0.14
26 -0.3
27 0.14
28 -0.15
29 -0.15
3 -0.81
30 0.08
31 -0.15
32 -0.15
33 0.28
4 0.05
46 0.15
47 0.15
48 0.15
49 0.37
5 -0.57
52 0.15
53 0.15
54 0.15
55 0.27
56 0.15
57 0.15
58 0.15
6 -0.73
7 0.3
8 -0.71
9 0.27

> <PUBCHEM_EFFECTIVE_ROTOR_COUNT>
10

> <PUBCHEM_PHARMACOPHORE_FEATURES>
13
1 1 acceptor
1 2 acceptor
1 3 cation
1 4 cation
1 5 acceptor
1 6 donor
1 7 donor
1 8 acceptor
5 3 9 10 11 12 rings
5 4 15 16 17 18 rings
5 7 8 23 26 27 rings
6 25 28 29 30 31 32 rings
6 5 15 17 19 21 22 rings

> <PUBCHEM_HEAVY_ATOM_COUNT>
33

> <PUBCHEM_ATOM_DEF_STEREO_COUNT>
0

> <PUBCHEM_ATOM_UDEF_STEREO_COUNT>
0

> <PUBCHEM_BOND_DEF_STEREO_COUNT>
0

> <PUBCHEM_BOND_UDEF_STEREO_COUNT>
0

> <PUBCHEM_ISOTOPIC_ATOM_COUNT>
0

> <PUBCHEM_COMPONENT_COUNT>
1

> <PUBCHEM_CACTVS_TAUTO_COUNT>
8

> <PUBCHEM_CONFORMER_ID>
0343A5DD00000001

> <PUBCHEM_MMFF94_ENERGY>
66.5048

> <PUBCHEM_FEATURE_SELFOVERLAP>
66.086

> <PUBCHEM_SHAPE_FINGERPRINT>
10050765 1 18410865330348650038
10319926 262 18342459236486497134
11136131 41 18116154356065714819
11297750 10 18056475282612481409
11399510 152 18198328736894390960
11443803 9 18261108527263606049
12107183 9 18263361409366734408
12124843 1 9078545006666788778
12925494 130 18342451492386142882
12977781 61 17987539038238749351
13540713 4 18058748939203233566
13540713 5 18042138694383845180
14028597 1 17822567326286934371
14118638 360 18042973267065051892
14294032 229 18266203728159772661
15326921 28 18338800005770548417
15328829 1 17749100119581593753
15347591 1 18410574016245435468
15400415 2 18049455738710007453
15439362 3 18051693235759513293
15664458 50 18201721717191556728
16990366 60 17686904225717696787
16994733 274 15912482381687373921
19301679 30 18122343746444039379
19319366 153 17981323388324211781
20554085 129 17844514522995666024
20642791 105 18411422834051242733
21639891 77 18201441414967335673
21814621 53 18201711861079433698
23522609 53 17677921022676633228
23929065 36 18341045319898435561
244849 19 17631193929678383764
249057 25 17895481435171162116
3504750 166 18409444816817415566
3886686 26 18123190096364188050
397638 26 18338796702444961936
5104073 3 18341609344073624976
513202 73 18265336282098932817
6695519 79 17980228309129319497
9961470 85 18197500627875388406

> <PUBCHEM_SHAPE_MULTIPOLES>
637.5
21.25
6.36
1.3
32.77
1.5
0.01
-5.58
-9.8
-19.49
-0.84
1.67
-0.27
-0.25

> <PUBCHEM_SHAPE_SELFOVERLAP>
1392.427

> <PUBCHEM_SHAPE_VOLUME>
348.1

> <PUBCHEM_COORDINATE_TYPE>
2
5
10

$$$$
54765020
  -OEChem-05102415093D

 55 58  0     0  0  0  0  0  0999 V2000
   -2.1420   -1.6924    0.5612 O   0  0  0  0  0  0  0  0  0  0  0  0
   -6.8242    0.1547   -1.3371 O   0  0  0  0  0  0  0  0  0  0  0  0
    0.7697    0.4158    0.7614 N   0  0  0  0  0  0  0  0  0  0  0  0
    0.0435   -3.8530    0.2326 N   0  0  0  0  0  0  0  0  0  0  0  0
   -1.9539    0.3827    1.5787 N   0  0  0  0  0  0  0  0  0  0  0  0
    6.8943    2.9986   -0.1539 N   0  0  0  0  0  0  0  0  0  0  0  0
    7.7308    1.9470   -0.1812 N   0  0  0  0  0  0  0  0  0  0  0  0
    0.6855   -1.5547   -0.2572 C   0  0  0  0  0  0  0  0  0  0  0  0
    2.0062   -1.0417   -0.3893 C   0  0  0  0  0  0  0  0  0  0  0  0
    2.0320    0.1953    0.2583 C   0  0  0  0  0  0  0  0  0  0  0  0
   -0.0511   -0.6363    0.4551 C   0  0  0  0  0  0  0  0  0  0  0  0
    0.1960   -2.8438   -0.7913 C   0  0  0  0  0  0  0  0  0  0  0  0
    3.1857   -1.5125   -0.9996 C   0  0  0  0  0  0  0  0  0  0  0  0
    3.1832    0.9882    0.3264 C   0  0  0  0  0  0  0  0  0  0  0  0
    4.3411    0.5007   -0.2862 C   0  0  0  0  0  0  0  0  0  0  0  0
   -1.4258   -0.6995    0.8434 C   0  0  0  0  0  0  0  0  0  0  0  0
    4.3446   -0.7301   -0.9395 C   0  0  0  0  0  0  0  0  0  0  0  0
    5.5464    1.2820   -0.2386 C   0  0  0  0  0  0  0  0  0  0  0  0
   -0.9052   -4.8921   -0.1875 C   0  0  0  0  0  0  0  0  0  0  0  0
    1.3357   -4.4652    0.5667 C   0  0  0  0  0  0  0  0  0  0  0  0
   -3.3142    0.4567    2.0615 C   0  0  0  0  0  0  0  0  0  0  0  0
   -4.2306    1.1023    1.0627 C   0  0  0  0  0  0  0  0  0  0  0  0
    5.5749    2.6544   -0.1864 C   0  0  0  0  0  0  0  0  0  0  0  0
    6.9016    0.9013   -0.2331 C   0  0  0  0  0  0  0  0  0  0  0  0
   -5.1131    0.3196    0.3182 C   0  0  0  0  0  0  0  0  0  0  0  0
   -4.1991    2.4847    0.8787 C   0  0  0  0  0  0  0  0  0  0  0  0
   -5.9641    0.9191   -0.6102 C   0  0  0  0  0  0  0  0  0  0  0  0
   -5.0499    3.0843   -0.0499 C   0  0  0  0  0  0  0  0  0  0  0  0
   -5.9326    2.3015   -0.7942 C   0  0  0  0  0  0  0  0  0  0  0  0
   -7.6654    0.8322   -2.2696 C   0  0  0  0  0  0  0  0  0  0  0  0
   -0.7646   -2.6459   -1.2875 H   0  0  0  0  0  0  0  0  0  0  0  0
    0.8422   -3.2000   -1.6052 H   0  0  0  0  0  0  0  0  0  0  0  0
    0.5057    1.2409    1.2806 H   0  0  0  0  0  0  0  0  0  0  0  0
    3.2076   -2.4692   -1.5134 H   0  0  0  0  0  0  0  0  0  0  0  0
    3.1527    1.9364    0.8539 H   0  0  0  0  0  0  0  0  0  0  0  0
    5.2426   -1.1100   -1.4223 H   0  0  0  0  0  0  0  0  0  0  0  0
   -1.3652    1.1811    1.7889 H   0  0  0  0  0  0  0  0  0  0  0  0
   -0.5724   -5.4094   -1.0947 H   0  0  0  0  0  0  0  0  0  0  0  0
   -1.0381   -5.6350    0.6069 H   0  0  0  0  0  0  0  0  0  0  0  0
   -1.8937   -4.4595   -0.3775 H   0  0  0  0  0  0  0  0  0  0  0  0
    1.2066   -5.2220    1.3491 H   0  0  0  0  0  0  0  0  0  0  0  0
    1.8037   -4.9471   -0.2995 H   0  0  0  0  0  0  0  0  0  0  0  0
    2.0324   -3.7254    0.9739 H   0  0  0  0  0  0  0  0  0  0  0  0
   -3.3064    1.0355    2.9921 H   0  0  0  0  0  0  0  0  0  0  0  0
   -3.6593   -0.5523    2.3146 H   0  0  0  0  0  0  0  0  0  0  0  0
    4.8042    3.4128   -0.1768 H   0  0  0  0  0  0  0  0  0  0  0  0
    7.3277   -0.0918   -0.2615 H   0  0  0  0  0  0  0  0  0  0  0  0
   -5.1424   -0.7587    0.4543 H   0  0  0  0  0  0  0  0  0  0  0  0
   -3.5156    3.1047    1.4528 H   0  0  0  0  0  0  0  0  0  0  0  0
    7.2933    3.9282   -0.1147 H   0  0  0  0  0  0  0  0  0  0  0  0
   -5.0244    4.1608   -0.1925 H   0  0  0  0  0  0  0  0  0  0  0  0
   -6.5653    2.8318   -1.4977 H   0  0  0  0  0  0  0  0  0  0  0  0
   -8.2832    0.0722   -2.7591 H   0  0  0  0  0  0  0  0  0  0  0  0
   -7.0814    1.3239   -3.0549 H   0  0  0  0  0  0  0  0  0  0  0  0
   -8.3491    1.5240   -1.7658 H   0  0  0  0  0  0  0  0  0  0  0  0
  1 16  2  0  0  0  0
  2 27  1  0  0  0  0
  2 30  1  0  0  0  0
  3 10  1  0  0  0  0
  3 11  1  0  0  0  0
  3 33  1  0  0  0  0
  4 12  1  0  0  0  0
  4 19  1  0  0  0  0
  4 20  1  0  0  0  0
  5 16  1  0  0  0  0
  5 21  1  0  0  0  0
  5 37  1  0  0  0  0
  6  7  1  0  0  0  0
  6 23  1  0  0  0  0
  6 50  1  0  0  0  0
  7 24  2  0  0  0  0
  8  9  1  0  0  0  0
  8 11  2  0  0  0  0
  8 12  1  0  0  0  0
  9 10  2  0  0  0  0
  9 13  1  0  0  0  0
 10 14  1  0  0  0  0
 11 16  1  0  0  0  0
 12 31  1  0  0  0  0
 12 32  1  0  0  0  0
 13 17  2  0  0  0  0
 13 34  1  0  0  0  0
 14 15  2  0  0  0  0
 14 35  1  0  0  0  0
 15 17  1  0  0  0  0
 15 18  1  0  0  0  0
 17 36  1  0  0  0  0
 18 23  2  0  0  0  0
 18 24  1  0  0  0  0
 19 38  1  0  0  0  0
 19 39  1  0  0  0  0
 19 40  1  0  0  0  0
 20 41  1  0  0  0  0
 20 42  1  0  0  0  0
 20 43  1  0  0  0  0
 21 22  1  0  0  0  0
 21 44  1  0  0  0  0
 21 45  1  0  0  0  0
 22 25  2  0  0  0  0
 22 26  1  0  0  0  0
 23 46  1  0  0  0  0
 24 47  1  0  0  0  0
 25 27  1  0  0  0  0
 25 48  1  0  0  0  0
 26 28  2  0  0  0  0
 26 49  1  0  0  0  0
 27 29  2  0  0  0  0
 28 29  1  0  0  0  0
 28 51  1  0  0  0  0
 29 52  1  0  0  0  0
 30 53  1  0  0  0  0
 30 54  1  0  0  0  0
 30 55  1  0  0  0  0
M  END
> <PUBCHEM_COMPOUND_CID>
54765020

> <PUBCHEM_CONFORMER_RMSD>
1

> <PUBCHEM_CONFORMER_DIVERSEORDER>
1
19
11
36
53
29
51
32
50
67
39
65
68
49
26
35
22
37
63
30
4
69
20
40
25
42
18
15
7
56
57
47
21
24
44
12
54
8
46
23
70
59
3
60
41
6
52
38
16
27
43
55
61
31
66
62
9
45
2
14
5
28
13
33
17
10
58
64
34
48

> <PUBCHEM_MMFF94_PARTIAL_CHARGES>
41
1 -0.57
10 -0.15
11 -0.24
12 0.45
13 -0.15
14 -0.15
15 0.05
16 0.71
17 -0.15
18 -0.05
19 0.27
2 -0.36
20 0.27
21 0.44
22 -0.14
23 -0.3
24 0.14
25 -0.15
26 -0.15
27 0.08
28 -0.15
29 -0.15
3 0.03
30 0.28
33 0.27
34 0.15
35 0.15
36 0.15
37 0.37
4 -0.81
46 0.15
47 0.15
48 0.15
49 0.15
5 -0.73
50 0.27
51 0.15
52 0.15
6 0.3
7 -0.71
8 -0.18

> <PUBCHEM_EFFECTIVE_ROTOR_COUNT>
8

> <PUBCHEM_PHARMACOPHORE_FEATURES>
12
1 1 acceptor
1 2 acceptor
1 3 cation
1 3 donor
1 4 cation
1 5 donor
1 6 donor
1 7 acceptor
5 3 8 9 10 11 rings
5 6 7 18 23 24 rings
6 22 25 26 27 28 29 rings
6 9 10 13 14 15 17 rings

> <PUBCHEM_HEAVY_ATOM_COUNT>
30

> <PUBCHEM_ATOM_DEF_STEREO_COUNT>
0

> <PUBCHEM_ATOM_UDEF_STEREO_COUNT>
0

> <PUBCHEM_BOND_DEF_STEREO_COUNT>
0

> <PUBCHEM_BOND_UDEF_STEREO_COUNT>
0

> <PUBCHEM_ISOTOPIC_ATOM_COUNT>
0

> <PUBCHEM_COMPONENT_COUNT>
1

> <PUBCHEM_CACTVS_TAUTO_COUNT>
42

> <PUBCHEM_CONFORMER_ID>
0343A5DC00000001

> <PUBCHEM_MMFF94_ENERGY>
72.844

> <PUBCHEM_FEATURE_SELFOVERLAP>
60.991

> <PUBCHEM_SHAPE_FINGERPRINT>
10554248 39 18272094873112178484
10595046 47 18270396076123694965
10675989 125 18122634846632468576
11136131 41 18189047604072181338
11211813 15 18335692888709658525
11297010 23 18131359605582023076
11720765 8 17252294311876209619
12107183 9 8070023402973899477
13150687 139 18342746204209798286
13911987 19 18413107264854441497
14190465 44 18199456840083084984
14251764 30 10159694685723128216
14420673 8 9871746897725904605
14767858 380 17775566442166910017
14950920 106 8717956809293012421
15324884 4 17974046965525083642
15352257 5 10663818576852690652
15475509 84 13190339054196603142
15669420 48 18187642527791975597
16120349 189 18333735749274446588
19053607 189 18266728083331818409
19246450 95 8213600951560286031
20715895 44 18411706500236903124
21033648 144 18339091418984531577
21033648 29 17895209761636718721
21150785 3 17346599685629713188
21859007 373 18115027399264179180
2748736 6 18410575076427299872
2838139 119 18263366906186395185
3103668 31 18123748927312500367
335352 9 18343311349771897788
5372103 7 17677032570363726053
563151 74 16226314959110801921
563151 97 18409161138754694559
6058803 2 17556023489990153787
6327066 14 18408603673226038172
9555976 147 12830071928617490789
999808 66 10303817583334488785

> <PUBCHEM_SHAPE_MULTIPOLES>
580.74
19.37
4.74
1.33
1.69
6.16
-0.06
-23
-7.8
-2
0.03
2.57
-0.15
0.19

> <PUBCHEM_SHAPE_SELFOVERLAP>
1270.052

> <PUBCHEM_SHAPE_VOLUME>
319.6

> <PUBCHEM_COORDINATE_TYPE>
2
5
10

$$$$
52933917
  -OEChem-05102415093D

 60 64  0     0  0  0  0  0  0999 V2000
    2.8209    3.6267   -1.5035 O   0  0  0  0  0  0  0  0  0  0  0  0
    1.7196   -0.2556    2.1445 O   0  0  0  0  0  0  0  0  0  0  0  0
    6.5856   -0.0314   -0.1384 O   0  0  0  0  0  0  0  0  0  0  0  0
    1.1133    2.1816    0.2564 N   0  0  0  0  0  0  0  0  0  0  0  0
   -1.3923   -1.3000    0.7900 N   0  0  0  0  0  0  0  0  0  0  0  0
    1.3961   -2.1333    0.8230 N   0  0  0  0  0  0  0  0  0  0  0  0
   -7.8070   -1.5972   -1.1552 N   0  0  0  0  0  0  0  0  0  0  0  0
   -8.4052   -0.5315   -0.5957 N   0  0  0  0  0  0  0  0  0  0  0  0
   -0.0151    2.0880    1.1804 C   0  0  0  0  0  0  0  0  0  0  0  0
   -0.8157    0.8364    0.9647 C   0  0  0  0  0  0  0  0  0  0  0  0
    2.1280    3.1151    0.7648 C   0  0  0  0  0  0  0  0  0  0  0  0
    0.6623    2.6052   -1.0764 C   0  0  0  0  0  0  0  0  0  0  0  0
   -2.1959    0.7746    0.6238 C   0  0  0  0  0  0  0  0  0  0  0  0
   -0.3497   -0.4547    1.0599 C   0  0  0  0  0  0  0  0  0  0  0  0
   -2.5323   -0.5769    0.5202 C   0  0  0  0  0  0  0  0  0  0  0  0
    3.2890    3.2058   -0.2216 C   0  0  0  0  0  0  0  0  0  0  0  0
    1.8579    2.7069   -2.0192 C   0  0  0  0  0  0  0  0  0  0  0  0
   -3.1943    1.7416    0.3929 C   0  0  0  0  0  0  0  0  0  0  0  0
   -3.8223   -1.0114    0.1958 C   0  0  0  0  0  0  0  0  0  0  0  0
   -4.7962   -0.0342   -0.0290 C   0  0  0  0  0  0  0  0  0  0  0  0
    0.9681   -0.9090    1.3786 C   0  0  0  0  0  0  0  0  0  0  0  0
   -4.4892    1.3216    0.0675 C   0  0  0  0  0  0  0  0  0  0  0  0
   -6.1348   -0.4365   -0.3629 C   0  0  0  0  0  0  0  0  0  0  0  0
    2.6872   -2.7351    1.0676 C   0  0  0  0  0  0  0  0  0  0  0  0
   -6.4477   -1.5881   -1.0430 C   0  0  0  0  0  0  0  0  0  0  0  0
    3.7138   -2.2885    0.0672 C   0  0  0  0  0  0  0  0  0  0  0  0
   -7.3786    0.1739   -0.1134 C   0  0  0  0  0  0  0  0  0  0  0  0
    4.6851   -1.3568    0.4334 C   0  0  0  0  0  0  0  0  0  0  0  0
    3.6959   -2.8046   -1.2287 C   0  0  0  0  0  0  0  0  0  0  0  0
    5.6387   -0.9412   -0.4960 C   0  0  0  0  0  0  0  0  0  0  0  0
    4.6492   -2.3889   -2.1582 C   0  0  0  0  0  0  0  0  0  0  0  0
    5.6208   -1.4575   -1.7919 C   0  0  0  0  0  0  0  0  0  0  0  0
    6.5450    0.4546    1.2026 C   0  0  0  0  0  0  0  0  0  0  0  0
   -0.6486    2.9823    1.1273 H   0  0  0  0  0  0  0  0  0  0  0  0
    0.3472    2.0485    2.2173 H   0  0  0  0  0  0  0  0  0  0  0  0
    2.5143    2.7710    1.7311 H   0  0  0  0  0  0  0  0  0  0  0  0
    1.6896    4.1113    0.9075 H   0  0  0  0  0  0  0  0  0  0  0  0
    0.1638    3.5818   -1.0187 H   0  0  0  0  0  0  0  0  0  0  0  0
   -0.0488    1.8863   -1.4979 H   0  0  0  0  0  0  0  0  0  0  0  0
    3.8116    2.2463   -0.3200 H   0  0  0  0  0  0  0  0  0  0  0  0
    4.0173    3.9452    0.1264 H   0  0  0  0  0  0  0  0  0  0  0  0
    1.5323    3.0792   -2.9958 H   0  0  0  0  0  0  0  0  0  0  0  0
    2.3322    1.7305   -2.1776 H   0  0  0  0  0  0  0  0  0  0  0  0
   -1.3401   -2.3094    0.7925 H   0  0  0  0  0  0  0  0  0  0  0  0
   -2.9740    2.8030    0.4609 H   0  0  0  0  0  0  0  0  0  0  0  0
   -4.0340   -2.0746    0.1410 H   0  0  0  0  0  0  0  0  0  0  0  0
   -5.2431    2.0850   -0.1130 H   0  0  0  0  0  0  0  0  0  0  0  0
    0.7738   -2.6253    0.1887 H   0  0  0  0  0  0  0  0  0  0  0  0
    3.0039   -2.4993    2.0899 H   0  0  0  0  0  0  0  0  0  0  0  0
    2.5618   -3.8226    1.0149 H   0  0  0  0  0  0  0  0  0  0  0  0
   -5.8523   -2.3884   -1.4605 H   0  0  0  0  0  0  0  0  0  0  0  0
   -7.5886    1.1013    0.4010 H   0  0  0  0  0  0  0  0  0  0  0  0
   -8.3893   -2.2954   -1.6004 H   0  0  0  0  0  0  0  0  0  0  0  0
    4.6519   -0.9856    1.4522 H   0  0  0  0  0  0  0  0  0  0  0  0
    2.9437   -3.5307   -1.5256 H   0  0  0  0  0  0  0  0  0  0  0  0
    4.6350   -2.7904   -3.1673 H   0  0  0  0  0  0  0  0  0  0  0  0
    6.3606   -1.1372   -2.5204 H   0  0  0  0  0  0  0  0  0  0  0  0
    5.6188    1.0035    1.4044 H   0  0  0  0  0  0  0  0  0  0  0  0
    6.7195   -0.3479    1.9274 H   0  0  0  0  0  0  0  0  0  0  0  0
    7.3684    1.1681    1.3123 H   0  0  0  0  0  0  0  0  0  0  0  0
  1 16  1  0  0  0  0
  1 17  1  0  0  0  0
  2 21  2  0  0  0  0
  3 30  1  0  0  0  0
  3 33  1  0  0  0  0
  4  9  1  0  0  0  0
  4 11  1  0  0  0  0
  4 12  1  0  0  0  0
  5 14  1  0  0  0  0
  5 15  1  0  0  0  0
  5 44  1  0  0  0  0
  6 21  1  0  0  0  0
  6 24  1  0  0  0  0
  6 48  1  0  0  0  0
  7  8  1  0  0  0  0
  7 25  1  0  0  0  0
  7 53  1  0  0  0  0
  8 27  2  0  0  0  0
  9 10  1  0  0  0  0
  9 34  1  0  0  0  0
  9 35  1  0  0  0  0
 10 13  1  0  0  0  0
 10 14  2  0  0  0  0
 11 16  1  0  0  0  0
 11 36  1  0  0  0  0
 11 37  1  0  0  0  0
 12 17  1  0  0  0  0
 12 38  1  0  0  0  0
 12 39  1  0  0  0  0
 13 15  2  0  0  0  0
 13 18  1  0  0  0  0
 14 21  1  0  0  0  0
 15 19  1  0  0  0  0
 16 40  1  0  0  0  0
 16 41  1  0  0  0  0
 17 42  1  0  0  0  0
 17 43  1  0  0  0  0
 18 22  2  0  0  0  0
 18 45  1  0  0  0  0
 19 20  2  0  0  0  0
 19 46  1  0  0  0  0
 20 22  1  0  0  0  0
 20 23  1  0  0  0  0
 22 47  1  0  0  0  0
 23 25  2  0  0  0  0
 23 27  1  0  0  0  0
 24 26  1  0  0  0  0
 24 49  1  0  0  0  0
 24 50  1  0  0  0  0
 25 51  1  0  0  0  0
 26 28  2  0  0  0  0
 26 29  1  0  0  0  0
 27 52  1  0  0  0  0
 28 30  1  0  0  0  0
 28 54  1  0  0  0  0
 29 31  2  0  0  0  0
 29 55  1  0  0  0  0
 30 32  2  0  0  0  0
 31 32  1  0  0  0  0
 31 56  1  0  0  0  0
 32 57  1  0  0  0  0
 33 58  1  0  0  0  0
 33 59  1  0  0  0  0
 33 60  1  0  0  0  0
M  END
> <PUBCHEM_COMPOUND_CID>
52933917

> <PUBCHEM_CONFORMER_RMSD>
1

> <PUBCHEM_CONFORMER_DIVERSEORDER>
1
54
22
121
97
73
87
64
120
92
94
101
85
108
12
91
119
29
116
86
111
72
60
99
112
55
70
51
28
90
43
78
117
9
123
48
61
71
126
93
69
63
50
15
124
104
47
98
66
100
59
74
46
118
107
122
81
115
30
114
31
45
53
18
39
20
80
49
102
40
35
52
10
76
75
109
68
44
113
21
38
65
56
36
13
82
42
41
25
67
27
34
58
33
23
110
2
8
24
14
37
84
127
32
88
26
62
105
79
57
95
106
19
96
7
83
5
17
89
103
77
4
16
11
6
125
3

> <PUBCHEM_MMFF94_PARTIAL_CHARGES>
44
1 -0.56
10 -0.18
11 0.27
12 0.27
14 -0.24
15 -0.15
16 0.28
17 0.28
18 -0.15
19 -0.15
2 -0.57
20 0.05
21 0.71
22 -0.15
23 -0.05
24 0.44
25 -0.3
26 -0.14
27 0.14
28 -0.15
29 -0.15
3 -0.36
30 0.08
31 -0.15
32 -0.15
33 0.28
4 -0.81
44 0.27
45 0.15
46 0.15
47 0.15
48 0.37
5 0.03
51 0.15
52 0.15
53 0.27
54 0.15
55 0.15
56 0.15
57 0.15
6 -0.73
7 0.3
8 -0.71
9 0.45

> <PUBCHEM_EFFECTIVE_ROTOR_COUNT>
9.2

> <PUBCHEM_PHARMACOPHORE_FEATURES>
14
1 1 acceptor
1 2 acceptor
1 3 acceptor
1 4 cation
1 5 cation
1 5 donor
1 6 donor
1 7 donor
1 8 acceptor
5 5 10 13 14 15 rings
5 7 8 23 25 27 rings
6 1 4 11 12 16 17 rings
6 13 15 18 19 20 22 rings
6 26 28 29 30 31 32 rings

> <PUBCHEM_HEAVY_ATOM_COUNT>
33

> <PUBCHEM_ATOM_DEF_STEREO_COUNT>
0

> <PUBCHEM_ATOM_UDEF_STEREO_COUNT>
0

> <PUBCHEM_BOND_DEF_STEREO_COUNT>
0

> <PUBCHEM_BOND_UDEF_STEREO_COUNT>
0

> <PUBCHEM_ISOTOPIC_ATOM_COUNT>
0

> <PUBCHEM_COMPONENT_COUNT>
1

> <PUBCHEM_CACTVS_TAUTO_COUNT>
42

> <PUBCHEM_CONFORMER_ID>
0327B51D00000001

> <PUBCHEM_MMFF94_ENERGY>
73.5438

> <PUBCHEM_FEATURE_SELFOVERLAP>
71.142

> <PUBCHEM_SHAPE_FINGERPRINT>
11115154 58 18272656706142436209
11408170 132 18114167611758282197
11621639 179 17387960977601853853
117089 54 17986384710972847423
11763715 3 17274278153324695640
12522641 24 17632288025241798505
12522641 33 18263925617545542420
12717326 120 14978529906869534461
12838863 1 18334571301599139226
13533116 47 18342739658558384329
13540713 4 17824557489435203563
1361 2 18341898476481606758
13751561 76 13829862330312704940
14068700 675 18341612560070583000
14117953 113 18261120708080969060
14347332 77 18342459219043299437
14725015 67 18261383435377512024
14790565 3 17112413312803859616
15183329 4 18040440970777703541
15439362 3 18116433837613116716
15444296 7 18130784611559264678
16090146 7 17917445241189035571
18365409 1 17773868882424707206
20554085 129 15936403455513458009
20775438 99 18266167512695163927
21344244 246 18339929306874335556
21781055 127 16916803855815280787
23559900 14 18410287039104155483
24771293 8 18410857647000297568
24771750 20 17825689981652537220
25147074 1 18272100379292244769
3004659 81 18410003343792603531
34797466 226 17918274238490573274
4017518 198 18126296474895983948
4066623 53 17530681009189837660
46194498 28 18333445460898380429
465052 167 15051729768507589258
5081480 168 18260256439557488693
6004065 56 18411981403649880856
6669772 16 17700966910722249840

> <PUBCHEM_SHAPE_MULTIPOLES>
636.61
18.73
3.86
1.66
25.74
2.38
0.4
-10.31
6.63
-5.11
1.28
-1.89
-0.09
-0.33

> <PUBCHEM_SHAPE_SELFOVERLAP>
1396.017

> <PUBCHEM_SHAPE_VOLUME>
346.5

> <PUBCHEM_COORDINATE_TYPE>
2
5
10

$$$$
57403855
  -OEChem-05102415093D

 63 67  0     0  0  0  0  0  0999 V2000
   -1.4943    0.6214    2.1821 O   0  0  0  0  0  0  0  0  0  0  0  0
   -6.4104    0.4516    0.0043 O   0  0  0  0  0  0  0  0  0  0  0  0
   -1.0679   -2.0282    0.5483 N   0  0  0  0  0  0  0  0  0  0  0  0
   -2.9719   -3.5464   -1.0100 N   0  0  0  0  0  0  0  0  0  0  0  0
    1.6438    1.3415    0.6813 N   0  0  0  0  0  0  0  0  0  0  0  0
    3.9468    0.9411    0.0987 N   0  0  0  0  0  0  0  0  0  0  0  0
   -1.0917    2.3333    0.6707 N   0  0  0  0  0  0  0  0  0  0  0  0
    7.8423    1.5817   -1.0215 N   0  0  0  0  0  0  0  0  0  0  0  0
    8.3575    0.3405   -1.0316 N   0  0  0  0  0  0  0  0  0  0  0  0
   -0.6823   -2.6631   -0.7179 C   0  0  0  0  0  0  0  0  0  0  0  0
   -2.1491   -2.7843    1.1919 C   0  0  0  0  0  0  0  0  0  0  0  0
   -1.8894   -2.7919   -1.6534 C   0  0  0  0  0  0  0  0  0  0  0  0
   -3.3565   -2.9119    0.2567 C   0  0  0  0  0  0  0  0  0  0  0  0
    0.0837   -1.9076    1.4403 C   0  0  0  0  0  0  0  0  0  0  0  0
    0.9495   -0.7338    1.0845 C   0  0  0  0  0  0  0  0  0  0  0  0
    2.3204   -0.7864    0.7182 C   0  0  0  0  0  0  0  0  0  0  0  0
    0.5606    0.5881    1.0531 C   0  0  0  0  0  0  0  0  0  0  0  0
   -4.1236   -3.6649   -1.9020 C   0  0  0  0  0  0  0  0  0  0  0  0
    2.7229    0.5232    0.4736 C   0  0  0  0  0  0  0  0  0  0  0  0
    3.2822   -1.7979    0.5624 C   0  0  0  0  0  0  0  0  0  0  0  0
   -0.7227    1.1487    1.3425 C   0  0  0  0  0  0  0  0  0  0  0  0
    4.5666   -1.4204    0.1751 C   0  0  0  0  0  0  0  0  0  0  0  0
    4.8318   -0.0740   -0.0362 C   0  0  0  0  0  0  0  0  0  0  0  0
   -2.3413    3.0312    0.8709 C   0  0  0  0  0  0  0  0  0  0  0  0
    6.1527    0.3281   -0.4345 C   0  0  0  0  0  0  0  0  0  0  0  0
   -3.4117    2.5462   -0.0637 C   0  0  0  0  0  0  0  0  0  0  0  0
    6.5252    1.6290   -0.6706 C   0  0  0  0  0  0  0  0  0  0  0  0
    7.3206   -0.4210   -0.6723 C   0  0  0  0  0  0  0  0  0  0  0  0
   -4.4267    1.7149    0.4100 C   0  0  0  0  0  0  0  0  0  0  0  0
   -3.3908    2.9264   -1.4057 C   0  0  0  0  0  0  0  0  0  0  0  0
   -5.4209    1.2637   -0.4582 C   0  0  0  0  0  0  0  0  0  0  0  0
   -4.3849    2.4750   -2.2739 C   0  0  0  0  0  0  0  0  0  0  0  0
   -5.4001    1.6438   -1.8002 C   0  0  0  0  0  0  0  0  0  0  0  0
   -6.3703    0.1025    1.3873 C   0  0  0  0  0  0  0  0  0  0  0  0
    0.0773   -2.0618   -1.2312 H   0  0  0  0  0  0  0  0  0  0  0  0
   -0.2478   -3.6571   -0.5437 H   0  0  0  0  0  0  0  0  0  0  0  0
   -1.8035   -3.7833    1.4906 H   0  0  0  0  0  0  0  0  0  0  0  0
   -2.4773   -2.2660    2.1011 H   0  0  0  0  0  0  0  0  0  0  0  0
   -2.2327   -1.7918   -1.9516 H   0  0  0  0  0  0  0  0  0  0  0  0
   -1.5664   -3.3111   -2.5640 H   0  0  0  0  0  0  0  0  0  0  0  0
   -4.1198   -3.5184    0.7592 H   0  0  0  0  0  0  0  0  0  0  0  0
   -3.7921   -1.9190    0.0801 H   0  0  0  0  0  0  0  0  0  0  0  0
   -0.2509   -1.7399    2.4737 H   0  0  0  0  0  0  0  0  0  0  0  0
    0.6652   -2.8378    1.4714 H   0  0  0  0  0  0  0  0  0  0  0  0
   -4.9107   -4.2674   -1.4353 H   0  0  0  0  0  0  0  0  0  0  0  0
   -3.8417   -4.1786   -2.8278 H   0  0  0  0  0  0  0  0  0  0  0  0
   -4.5470   -2.6885   -2.1644 H   0  0  0  0  0  0  0  0  0  0  0  0
    1.6528    2.3469    0.5795 H   0  0  0  0  0  0  0  0  0  0  0  0
    3.0437   -2.8424    0.7343 H   0  0  0  0  0  0  0  0  0  0  0  0
    5.3184   -2.1933    0.0513 H   0  0  0  0  0  0  0  0  0  0  0  0
   -0.4555    2.7212   -0.0196 H   0  0  0  0  0  0  0  0  0  0  0  0
   -2.1556    4.0986    0.7053 H   0  0  0  0  0  0  0  0  0  0  0  0
   -2.6502    2.9192    1.9164 H   0  0  0  0  0  0  0  0  0  0  0  0
    5.9960    2.5710   -0.6258 H   0  0  0  0  0  0  0  0  0  0  0  0
    7.4749   -1.4885   -0.6030 H   0  0  0  0  0  0  0  0  0  0  0  0
   -4.3938    1.4475    1.4608 H   0  0  0  0  0  0  0  0  0  0  0  0
   -2.6048    3.5734   -1.7862 H   0  0  0  0  0  0  0  0  0  0  0  0
    8.4486    2.3548   -1.2658 H   0  0  0  0  0  0  0  0  0  0  0  0
   -4.3684    2.7705   -3.3189 H   0  0  0  0  0  0  0  0  0  0  0  0
   -6.1714    1.2951   -2.4814 H   0  0  0  0  0  0  0  0  0  0  0  0
   -7.2300   -0.5474    1.5811 H   0  0  0  0  0  0  0  0  0  0  0  0
   -6.4851    0.9831    2.0284 H   0  0  0  0  0  0  0  0  0  0  0  0
   -5.4726   -0.4756    1.6314 H   0  0  0  0  0  0  0  0  0  0  0  0
  1 21  2  0  0  0  0
  2 31  1  0  0  0  0
  2 34  1  0  0  0  0
  3 10  1  0  0  0  0
  3 11  1  0  0  0  0
  3 14  1  0  0  0  0
  4 12  1  0  0  0  0
  4 13  1  0  0  0  0
  4 18  1  0  0  0  0
  5 17  1  0  0  0  0
  5 19  1  0  0  0  0
  5 48  1  0  0  0  0
  6 19  1  0  0  0  0
  6 23  2  0  0  0  0
  7 21  1  0  0  0  0
  7 24  1  0  0  0  0
  7 51  1  0  0  0  0
  8  9  1  0  0  0  0
  8 27  1  0  0  0  0
  8 58  1  0  0  0  0
  9 28  2  0  0  0  0
 10 12  1  0  0  0  0
 10 35  1  0  0  0  0
 10 36  1  0  0  0  0
 11 13  1  0  0  0  0
 11 37  1  0  0  0  0
 11 38  1  0  0  0  0
 12 39  1  0  0  0  0
 12 40  1  0  0  0  0
 13 41  1  0  0  0  0
 13 42  1  0  0  0  0
 14 15  1  0  0  0  0
 14 43  1  0  0  0  0
 14 44  1  0  0  0  0
 15 16  1  0  0  0  0
 15 17  2  0  0  0  0
 16 19  2  0  0  0  0
 16 20  1  0  0  0  0
 17 21  1  0  0  0  0
 18 45  1  0  0  0  0
 18 46  1  0  0  0  0
 18 47  1  0  0  0  0
 20 22  2  0  0  0  0
 20 49  1  0  0  0  0
 22 23  1  0  0  0  0
 22 50  1  0  0  0  0
 23 25  1  0  0  0  0
 24 26  1  0  0  0  0
 24 52  1  0  0  0  0
 24 53  1  0  0  0  0
 25 27  2  0  0  0  0
 25 28  1  0  0  0  0
 26 29  2  0  0  0  0
 26 30  1  0  0  0  0
 27 54  1  0  0  0  0
 28 55  1  0  0  0  0
 29 31  1  0  0  0  0
 29 56  1  0  0  0  0
 30 32  2  0  0  0  0
 30 57  1  0  0  0  0
 31 33  2  0  0  0  0
 32 33  1  0  0  0  0
 32 59  1  0  0  0  0
 33 60  1  0  0  0  0
 34 61  1  0  0  0  0
 34 62  1  0  0  0  0
 34 63  1  0  0  0  0
M  END
> <PUBCHEM_COMPOUND_CID>
57403855

> <PUBCHEM_CONFORMER_RMSD>
1

> <PUBCHEM_CONFORMER_DIVERSEORDER>
1
33
19
6
67
32
123
114
63
76
85
74
65
48
97
70
82
80
41
56
77
108
103
79
89
24
118
83
92
42
99
116
64
69
37
53
112
54
29
47
72
66
51
86
73
98
34
101
16
55
36
122
52
31
87
100
96
81
27
50
94
68
91
124
23
49
15
20
109
60
28
43
111
113
18
46
110
9
78
58
40
26
117
125
121
95
30
21
39
105
57
90
25
119
22
44
12
93
59
107
38
11
106
75
115
45
120
10
62
14
17
61
35
84
104
88
7
13
102
71
4
8
5
3
2

> <PUBCHEM_MMFF94_PARTIAL_CHARGES>
44
1 -0.57
10 0.27
11 0.27
12 0.27
13 0.27
14 0.45
15 -0.18
17 -0.24
18 0.27
19 0.11
2 -0.36
20 -0.15
21 0.71
22 -0.15
23 0.36
24 0.44
25 -0.05
26 -0.14
27 -0.3
28 0.14
29 -0.15
3 -0.81
30 -0.15
31 0.08
32 -0.15
33 -0.15
34 0.28
4 -0.81
48 0.27
49 0.15
5 0.03
50 0.15
51 0.37
54 0.15
55 0.15
56 0.15
57 0.15
58 0.27
59 0.15
6 -0.57
60 0.15
7 -0.73
8 0.3
9 -0.71

> <PUBCHEM_EFFECTIVE_ROTOR_COUNT>
9.2

> <PUBCHEM_PHARMACOPHORE_FEATURES>
15
1 1 acceptor
1 2 acceptor
1 3 cation
1 4 cation
1 5 cation
1 5 donor
1 6 acceptor
1 7 donor
1 8 donor
1 9 acceptor
5 5 15 16 17 19 rings
5 8 9 25 27 28 rings
6 26 29 30 31 32 33 rings
6 3 4 10 11 12 13 rings
6 6 16 19 20 22 23 rings

> <PUBCHEM_HEAVY_ATOM_COUNT>
34

> <PUBCHEM_ATOM_DEF_STEREO_COUNT>
0

> <PUBCHEM_ATOM_UDEF_STEREO_COUNT>
0

> <PUBCHEM_BOND_DEF_STEREO_COUNT>
0

> <PUBCHEM_BOND_UDEF_STEREO_COUNT>
0

> <PUBCHEM_ISOTOPIC_ATOM_COUNT>
0

> <PUBCHEM_COMPONENT_COUNT>
1

> <PUBCHEM_CACTVS_TAUTO_COUNT>
46

> <PUBCHEM_CONFORMER_ID>
036BE9CF00000001

> <PUBCHEM_MMFF94_ENERGY>
74.4901

> <PUBCHEM_FEATURE_SELFOVERLAP>
76.24

> <PUBCHEM_SHAPE_FINGERPRINT>
10119406 146 18058178228391887078
10454371 7 18412266155359318236
10462674 296 17697590353241807967
10577160 183 18260821550465151898
10670039 82 18409723002423924199
10674148 151 16773792563674202785
11200772 71 18408884053318241878
11434127 23 17313668149206400537
11578080 2 17273396482169433331
12539745 222 16298960886491253083
12717326 150 14905959721121687732
13690498 29 18270676609764453831
13692115 27 17985255524714084243
13692115 46 16988018213732043983
13911987 19 18340197484991299109
14251757 5 18341604941225776695
14556957 393 18190472747430071604
14674994 50 16199856379855953532
14767858 380 18342736274287776464
14930077 153 18188216523357329828
15131766 46 15794016782053957604
15183329 4 18201996608003695150
15276724 80 18408604785622580719
15444296 7 18187655733830273029
15975801 100 18115292394345782813
17899979 129 17684358465098545549
19427546 20 18335707190998330458
20609170 92 18059027116330876294
21033648 29 15214160548037971977
23559900 14 18201714098425611648
25147074 1 18187634792239851946
4098825 35 18334856108974748662
4258327 124 17822875159615181252
437795 70 17985803017496400231
4409770 3 18272653458756620031
5171179 24 17914044562865440353
563151 97 18187083979848333834
6086070 43 18343298189834204752
7237137 82 18412266172396534902

> <PUBCHEM_SHAPE_MULTIPOLES>
653.1
18.24
4.32
1.75
29.54
2.44
0.35
-8.45
7.88
-6.84
1.58
-2.05
0.05
-0.67

> <PUBCHEM_SHAPE_SELFOVERLAP>
1425.703

> <PUBCHEM_SHAPE_VOLUME>
356.6

> <PUBCHEM_COORDINATE_TYPE>
2
5
10

$$$$
57402104
  -OEChem-05102415093D

 59 63  0     0  0  0  0  0  0999 V2000
   -2.8854   -3.6256   -1.4752 O   0  0  0  0  0  0  0  0  0  0  0  0
   -1.6692    0.2528    2.1391 O   0  0  0  0  0  0  0  0  0  0  0  0
   -6.5468    0.1381   -0.1270 O   0  0  0  0  0  0  0  0  0  0  0  0
   -1.1334   -2.2133    0.2676 N   0  0  0  0  0  0  0  0  0  0  0  0
    1.4638    1.2117    0.7666 N   0  0  0  0  0  0  0  0  0  0  0  0
    3.7865    0.9416    0.1871 N   0  0  0  0  0  0  0  0  0  0  0  0
   -1.3024    2.1135    0.8048 N   0  0  0  0  0  0  0  0  0  0  0  0
    7.6738    1.8089   -0.8015 N   0  0  0  0  0  0  0  0  0  0  0  0
    8.2295    0.5910   -0.9212 N   0  0  0  0  0  0  0  0  0  0  0  0
    0.0012   -2.1426    1.1861 C   0  0  0  0  0  0  0  0  0  0  0  0
    0.8327   -0.9134    0.9585 C   0  0  0  0  0  0  0  0  0  0  0  0
   -2.1693   -3.1171    0.7865 C   0  0  0  0  0  0  0  0  0  0  0  0
   -0.6995   -2.6569   -1.0644 C   0  0  0  0  0  0  0  0  0  0  0  0
    2.2094   -0.8877    0.6118 C   0  0  0  0  0  0  0  0  0  0  0  0
   -3.3367   -3.1846   -0.1940 C   0  0  0  0  0  0  0  0  0  0  0  0
   -1.9016   -2.7341   -2.0012 C   0  0  0  0  0  0  0  0  0  0  0  0
    0.4010    0.3925    1.0467 C   0  0  0  0  0  0  0  0  0  0  0  0
    2.5720    0.4514    0.5000 C   0  0  0  0  0  0  0  0  0  0  0  0
    3.2060   -1.8487    0.3764 C   0  0  0  0  0  0  0  0  0  0  0  0
   -0.9039    0.8822    1.3668 C   0  0  0  0  0  0  0  0  0  0  0  0
    4.7062   -0.0275   -0.0290 C   0  0  0  0  0  0  0  0  0  0  0  0
    4.4826   -1.3956    0.0483 C   0  0  0  0  0  0  0  0  0  0  0  0
   -2.5770    2.7494    1.0497 C   0  0  0  0  0  0  0  0  0  0  0  0
    6.0185    0.4523   -0.3651 C   0  0  0  0  0  0  0  0  0  0  0  0
   -3.6179    2.3228    0.0553 C   0  0  0  0  0  0  0  0  0  0  0  0
    6.3511    1.7808   -0.4697 C   0  0  0  0  0  0  0  0  0  0  0  0
    7.2135   -0.2336   -0.6535 C   0  0  0  0  0  0  0  0  0  0  0  0
   -4.6114    1.4183    0.4305 C   0  0  0  0  0  0  0  0  0  0  0  0
   -3.5913    2.8303   -1.2438 C   0  0  0  0  0  0  0  0  0  0  0  0
   -5.5783    1.0214   -0.4932 C   0  0  0  0  0  0  0  0  0  0  0  0
   -4.5579    2.4331   -2.1676 C   0  0  0  0  0  0  0  0  0  0  0  0
   -5.5516    1.5290   -1.7924 C   0  0  0  0  0  0  0  0  0  0  0  0
   -6.5141   -0.3405    1.2170 C   0  0  0  0  0  0  0  0  0  0  0  0
    0.6136   -3.0519    1.1344 H   0  0  0  0  0  0  0  0  0  0  0  0
   -0.3547   -2.0879    2.2244 H   0  0  0  0  0  0  0  0  0  0  0  0
   -2.5423   -2.7570    1.7522 H   0  0  0  0  0  0  0  0  0  0  0  0
   -1.7558   -4.1233    0.9339 H   0  0  0  0  0  0  0  0  0  0  0  0
   -0.2258   -3.6455   -1.0025 H   0  0  0  0  0  0  0  0  0  0  0  0
    0.0278   -1.9590   -1.4938 H   0  0  0  0  0  0  0  0  0  0  0  0
   -3.8351   -2.2127   -0.2965 H   0  0  0  0  0  0  0  0  0  0  0  0
   -4.0821   -3.9028    0.1620 H   0  0  0  0  0  0  0  0  0  0  0  0
   -1.5901   -3.1208   -2.9767 H   0  0  0  0  0  0  0  0  0  0  0  0
   -2.3516   -1.7469   -2.1639 H   0  0  0  0  0  0  0  0  0  0  0  0
    1.4412    2.2220    0.7613 H   0  0  0  0  0  0  0  0  0  0  0  0
    2.9998   -2.9119    0.4438 H   0  0  0  0  0  0  0  0  0  0  0  0
    5.2610   -2.1291   -0.1360 H   0  0  0  0  0  0  0  0  0  0  0  0
   -0.6700    2.5856    0.1654 H   0  0  0  0  0  0  0  0  0  0  0  0
   -2.4242    3.8330    0.9898 H   0  0  0  0  0  0  0  0  0  0  0  0
   -2.8963    2.5280    2.0745 H   0  0  0  0  0  0  0  0  0  0  0  0
    5.7907    2.6972   -0.3441 H   0  0  0  0  0  0  0  0  0  0  0  0
    7.4019   -1.2975   -0.6837 H   0  0  0  0  0  0  0  0  0  0  0  0
   -4.5842    1.0527    1.4516 H   0  0  0  0  0  0  0  0  0  0  0  0
   -2.8219    3.5353   -1.5476 H   0  0  0  0  0  0  0  0  0  0  0  0
    8.2576    2.6204   -0.9608 H   0  0  0  0  0  0  0  0  0  0  0  0
   -4.5369    2.8279   -3.1792 H   0  0  0  0  0  0  0  0  0  0  0  0
   -6.3017    1.2231   -2.5166 H   0  0  0  0  0  0  0  0  0  0  0  0
   -7.3549   -1.0322    1.3337 H   0  0  0  0  0  0  0  0  0  0  0  0
   -6.6658    0.4706    1.9373 H   0  0  0  0  0  0  0  0  0  0  0  0
   -5.6014   -0.9115    1.4192 H   0  0  0  0  0  0  0  0  0  0  0  0
  1 15  1  0  0  0  0
  1 16  1  0  0  0  0
  2 20  2  0  0  0  0
  3 30  1  0  0  0  0
  3 33  1  0  0  0  0
  4 10  1  0  0  0  0
  4 12  1  0  0  0  0
  4 13  1  0  0  0  0
  5 17  1  0  0  0  0
  5 18  1  0  0  0  0
  5 44  1  0  0  0  0
  6 18  1  0  0  0  0
  6 21  2  0  0  0  0
  7 20  1  0  0  0  0
  7 23  1  0  0  0  0
  7 47  1  0  0  0  0
  8  9  1  0  0  0  0
  8 26  1  0  0  0  0
  8 54  1  0  0  0  0
  9 27  2  0  0  0  0
 10 11  1  0  0  0  0
 10 34  1  0  0  0  0
 10 35  1  0  0  0  0
 11 14  1  0  0  0  0
 11 17  2  0  0  0  0
 12 15  1  0  0  0  0
 12 36  1  0  0  0  0
 12 37  1  0  0  0  0
 13 16  1  0  0  0  0
 13 38  1  0  0  0  0
 13 39  1  0  0  0  0
 14 18  2  0  0  0  0
 14 19  1  0  0  0  0
 15 40  1  0  0  0  0
 15 41  1  0  0  0  0
 16 42  1  0  0  0  0
 16 43  1  0  0  0  0
 17 20  1  0  0  0  0
 19 22  2  0  0  0  0
 19 45  1  0  0  0  0
 21 22  1  0  0  0  0
 21 24  1  0  0  0  0
 22 46  1  0  0  0  0
 23 25  1  0  0  0  0
 23 48  1  0  0  0  0
 23 49  1  0  0  0  0
 24 26  2  0  0  0  0
 24 27  1  0  0  0  0
 25 28  2  0  0  0  0
 25 29  1  0  0  0  0
 26 50  1  0  0  0  0
 27 51  1  0  0  0  0
 28 30  1  0  0  0  0
 28 52  1  0  0  0  0
 29 31  2  0  0  0  0
 29 53  1  0  0  0  0
 30 32  2  0  0  0  0
 31 32  1  0  0  0  0
 31 55  1  0  0  0  0
 32 56  1  0  0  0  0
 33 57  1  0  0  0  0
 33 58  1  0  0  0  0
 33 59  1  0  0  0  0
M  END
> <PUBCHEM_COMPOUND_CID>
57402104

> <PUBCHEM_CONFORMER_RMSD>
1

> <PUBCHEM_CONFORMER_DIVERSEORDER>
1
65
20
88
91
32
12
54
77
59
97
98
83
71
36
73
55
42
86
94
90
56
9
66
25
92
51
84
28
49
53
58
27
22
85
69
45
60
17
61
18
70
48
64
62
24
52
82
16
95
37
67
57
75
35
33
19
81
23
50
43
14
74
63
47
89
29
93
87
46
30
40
31
21
11
10
38
41
15
7
39
96
80
34
8
72
79
13
3
26
6
4
44
76
68
5
78
2

> <PUBCHEM_MMFF94_PARTIAL_CHARGES>
43
1 -0.56
10 0.45
11 -0.18
12 0.27
13 0.27
15 0.28
16 0.28
17 -0.24
18 0.11
19 -0.15
2 -0.57
20 0.71
21 0.36
22 -0.15
23 0.44
24 -0.05
25 -0.14
26 -0.3
27 0.14
28 -0.15
29 -0.15
3 -0.36
30 0.08
31 -0.15
32 -0.15
33 0.28
4 -0.81
44 0.27
45 0.15
46 0.15
47 0.37
5 0.03
50 0.15
51 0.15
52 0.15
53 0.15
54 0.27
55 0.15
56 0.15
6 -0.57
7 -0.73
8 0.3
9 -0.71

> <PUBCHEM_EFFECTIVE_ROTOR_COUNT>
9.2

> <PUBCHEM_PHARMACOPHORE_FEATURES>
15
1 1 acceptor
1 2 acceptor
1 3 acceptor
1 4 cation
1 5 cation
1 5 donor
1 6 acceptor
1 7 donor
1 8 donor
1 9 acceptor
5 5 11 14 17 18 rings
5 8 9 24 26 27 rings
6 1 4 12 13 15 16 rings
6 25 28 29 30 31 32 rings
6 6 14 18 19 21 22 rings

> <PUBCHEM_HEAVY_ATOM_COUNT>
33

> <PUBCHEM_ATOM_DEF_STEREO_COUNT>
0

> <PUBCHEM_ATOM_UDEF_STEREO_COUNT>
0

> <PUBCHEM_BOND_DEF_STEREO_COUNT>
0

> <PUBCHEM_BOND_UDEF_STEREO_COUNT>
0

> <PUBCHEM_ISOTOPIC_ATOM_COUNT>
0

> <PUBCHEM_COMPONENT_COUNT>
1

> <PUBCHEM_CACTVS_TAUTO_COUNT>
46

> <PUBCHEM_CONFORMER_ID>
036BE2F800000001

> <PUBCHEM_MMFF94_ENERGY>
71.1681

> <PUBCHEM_FEATURE_SELFOVERLAP>
76.239

> <PUBCHEM_SHAPE_FINGERPRINT>
10076449 9 18341621455628062419
10119406 146 18058460815749335630
10454371 7 18413392059518897644
10577160 183 18262510404599316538
10674148 151 16486970670544387009
11434127 23 17676488294680011449
11488393 25 17770225960084188927
11513181 2 17910687466767844932
11578080 2 16987134236116059715
12717326 150 14690352092226917492
13150687 139 18337110055691196860
13690498 29 18127967714193010983
13692115 27 17913760893556755427
13692115 46 16629137635589976623
13726171 33 18116714015979345657
13911987 19 18341324492989089573
14251757 5 18342730854001781431
14674994 50 15841257268074359868
14767858 380 18272367538610304848
14930077 153 18189059861602713628
15131766 46 16300383676687288060
15183329 4 18059851749054487038
15264996 154 16531176875391098651
15444296 7 18260837041657762973
17899979 129 17830164710721682437
18603816 31 15267346223401930678
19427546 20 18336831999962432786
20511986 3 18334007294856390090
20609170 92 17988095435058260662
21033648 144 17969510320366395265
21033648 29 15575854797989365561
23559900 14 18130782412831635464
25147074 1 18260818290490184738
4098825 35 18335419067497018582
4258327 124 17968395536367645420
4409770 3 18202003256803317631
5171179 24 17842831402495291568
6086070 43 18272929449925056336
7237137 82 18341054111437780566

> <PUBCHEM_SHAPE_MULTIPOLES>
631.63
18.27
3.98
1.64
24.73
2.31
0.37
-10.77
6.62
-4.79
1.26
-1.97
-0.04
-0.09

> <PUBCHEM_SHAPE_SELFOVERLAP>
1385.606

> <PUBCHEM_SHAPE_VOLUME>
341.9

> <PUBCHEM_COORDINATE_TYPE>
2
5
10

$$$$
52935061
  -OEChem-05102415093D

 46 49  0     0  0  0  0  0  0999 V2000
   -2.0027   -0.2841    1.9974 O   0  0  0  0  0  0  0  0  0  0  0  0
   -6.6398   -2.3489    0.2161 O   0  0  0  0  0  0  0  0  0  0  0  0
    0.6830   -0.1517    1.0637 N   0  0  0  0  0  0  0  0  0  0  0  0
   -2.5855    1.5923    0.7660 N   0  0  0  0  0  0  0  0  0  0  0  0
    8.0349   -1.5073   -0.1544 N   0  0  0  0  0  0  0  0  0  0  0  0
    1.8607    0.2044    0.4460 C   0  0  0  0  0  0  0  0  0  0  0  0
    1.5969    1.3452   -0.3153 C   0  0  0  0  0  0  0  0  0  0  0  0
   -0.3133    0.7224    0.7205 C   0  0  0  0  0  0  0  0  0  0  0  0
    0.2216    1.6608   -0.1318 C   0  0  0  0  0  0  0  0  0  0  0  0
    3.1265   -0.3900    0.5023 C   0  0  0  0  0  0  0  0  0  0  0  0
    4.1516    0.2004   -0.2421 C   0  0  0  0  0  0  0  0  0  0  0  0
    2.6459    1.9223   -1.0580 C   0  0  0  0  0  0  0  0  0  0  0  0
    3.9174    1.3388   -1.0109 C   0  0  0  0  0  0  0  0  0  0  0  0
   -1.6557    0.6227    1.1992 C   0  0  0  0  0  0  0  0  0  0  0  0
   -3.9702    1.6398    1.1777 C   0  0  0  0  0  0  0  0  0  0  0  0
    5.4768   -0.3818   -0.2125 C   0  0  0  0  0  0  0  0  0  0  0  0
   -4.8559    0.8447    0.2626 C   0  0  0  0  0  0  0  0  0  0  0  0
   -5.3431   -0.3974    0.6693 C   0  0  0  0  0  0  0  0  0  0  0  0
    6.5980    0.4241   -0.3764 C   0  0  0  0  0  0  0  0  0  0  0  0
    5.6333   -1.7499   -0.0194 C   0  0  0  0  0  0  0  0  0  0  0  0
   -5.1912    1.3478   -0.9946 C   0  0  0  0  0  0  0  0  0  0  0  0
   -6.1656   -1.1366   -0.1809 C   0  0  0  0  0  0  0  0  0  0  0  0
   -6.0135    0.6085   -1.8450 C   0  0  0  0  0  0  0  0  0  0  0  0
   -6.5009   -0.6336   -1.4381 C   0  0  0  0  0  0  0  0  0  0  0  0
    7.8433   -0.1819   -0.3397 C   0  0  0  0  0  0  0  0  0  0  0  0
    6.9220   -2.2588    0.0014 C   0  0  0  0  0  0  0  0  0  0  0  0
   -7.4746   -3.0522   -0.7030 C   0  0  0  0  0  0  0  0  0  0  0  0
    0.5733   -0.9446    1.6810 H   0  0  0  0  0  0  0  0  0  0  0  0
   -0.2968    2.4931   -0.5880 H   0  0  0  0  0  0  0  0  0  0  0  0
    3.2742   -1.2582    1.1357 H   0  0  0  0  0  0  0  0  0  0  0  0
    2.4749    2.8057   -1.6667 H   0  0  0  0  0  0  0  0  0  0  0  0
    4.6902    1.7974   -1.6229 H   0  0  0  0  0  0  0  0  0  0  0  0
   -4.2809    2.6908    1.1805 H   0  0  0  0  0  0  0  0  0  0  0  0
   -4.0491    1.2796    2.2098 H   0  0  0  0  0  0  0  0  0  0  0  0
   -2.2861    2.3097    0.1141 H   0  0  0  0  0  0  0  0  0  0  0  0
   -5.0850   -0.7973    1.6469 H   0  0  0  0  0  0  0  0  0  0  0  0
   -4.8174    2.3142   -1.3224 H   0  0  0  0  0  0  0  0  0  0  0  0
    6.5502    1.5004   -0.5007 H   0  0  0  0  0  0  0  0  0  0  0  0
    4.8033   -2.4399    0.0854 H   0  0  0  0  0  0  0  0  0  0  0  0
   -6.2738    1.0011   -2.8238 H   0  0  0  0  0  0  0  0  0  0  0  0
   -7.1343   -1.1545   -2.1478 H   0  0  0  0  0  0  0  0  0  0  0  0
    8.7498    0.4033   -0.4551 H   0  0  0  0  0  0  0  0  0  0  0  0
    7.0982   -3.3203    0.1413 H   0  0  0  0  0  0  0  0  0  0  0  0
   -8.4005   -2.5035   -0.9064 H   0  0  0  0  0  0  0  0  0  0  0  0
   -6.9348   -3.3103   -1.6204 H   0  0  0  0  0  0  0  0  0  0  0  0
   -7.7602   -3.9946   -0.2243 H   0  0  0  0  0  0  0  0  0  0  0  0
  1 14  2  0  0  0  0
  2 22  1  0  0  0  0
  2 27  1  0  0  0  0
  3  6  1  0  0  0  0
  3  8  1  0  0  0  0
  3 28  1  0  0  0  0
  4 14  1  0  0  0  0
  4 15  1  0  0  0  0
  4 35  1  0  0  0  0
  5 25  2  0  0  0  0
  5 26  1  0  0  0  0
  6  7  2  0  0  0  0
  6 10  1  0  0  0  0
  7  9  1  0  0  0  0
  7 12  1  0  0  0  0
  8  9  2  0  0  0  0
  8 14  1  0  0  0  0
  9 29  1  0  0  0  0
 10 11  2  0  0  0  0
 10 30  1  0  0  0  0
 11 13  1  0  0  0  0
 11 16  1  0  0  0  0
 12 13  2  0  0  0  0
 12 31  1  0  0  0  0
 13 32  1  0  0  0  0
 15 17  1  0  0  0  0
 15 33  1  0  0  0  0
 15 34  1  0  0  0  0
 16 19  2  0  0  0  0
 16 20  1  0  0  0  0
 17 18  2  0  0  0  0
 17 21  1  0  0  0  0
 18 22  1  0  0  0  0
 18 36  1  0  0  0  0
 19 25  1  0  0  0  0
 19 38  1  0  0  0  0
 20 26  2  0  0  0  0
 20 39  1  0  0  0  0
 21 23  2  0  0  0  0
 21 37  1  0  0  0  0
 22 24  2  0  0  0  0
 23 24  1  0  0  0  0
 23 40  1  0  0  0  0
 24 41  1  0  0  0  0
 25 42  1  0  0  0  0
 26 43  1  0  0  0  0
 27 44  1  0  0  0  0
 27 45  1  0  0  0  0
 27 46  1  0  0  0  0
M  END
> <PUBCHEM_COMPOUND_CID>
52935061

> <PUBCHEM_CONFORMER_RMSD>
0.8

> <PUBCHEM_CONFORMER_DIVERSEORDER>
1
33
66
55
5
26
45
63
7
57
67
23
48
44
16
41
60
65
27
19
39
24
28
8
62
14
9
53
49
51
25
52
56
3
15
61
37
64
34
20
59
50
29
18
22
17
4
58
12
47
54
21
11
10
32
13
42
38
36
6
2
40
43
31
35
46
30

> <PUBCHEM_MMFF94_PARTIAL_CHARGES>
38
1 -0.57
10 -0.15
12 -0.15
13 -0.15
14 0.71
15 0.44
17 -0.14
18 -0.15
19 -0.15
2 -0.36
20 -0.15
21 -0.15
22 0.08
23 -0.15
24 -0.15
25 0.16
26 0.16
27 0.28
28 0.27
29 0.15
3 0.03
30 0.15
31 0.15
32 0.15
35 0.37
36 0.15
37 0.15
38 0.15
39 0.15
4 -0.73
40 0.15
41 0.15
42 0.15
43 0.15
5 -0.62
6 -0.15
8 -0.24
9 -0.15

> <PUBCHEM_EFFECTIVE_ROTOR_COUNT>
6

> <PUBCHEM_PHARMACOPHORE_FEATURES>
10
1 1 acceptor
1 2 acceptor
1 3 cation
1 3 donor
1 4 donor
1 5 acceptor
5 3 6 7 8 9 rings
6 17 18 21 22 23 24 rings
6 5 16 19 20 25 26 rings
6 6 7 10 11 12 13 rings

> <PUBCHEM_HEAVY_ATOM_COUNT>
27

> <PUBCHEM_ATOM_DEF_STEREO_COUNT>
0

> <PUBCHEM_ATOM_UDEF_STEREO_COUNT>
0

> <PUBCHEM_BOND_DEF_STEREO_COUNT>
0

> <PUBCHEM_BOND_UDEF_STEREO_COUNT>
0

> <PUBCHEM_ISOTOPIC_ATOM_COUNT>
0

> <PUBCHEM_COMPONENT_COUNT>
1

> <PUBCHEM_CACTVS_TAUTO_COUNT>
15

> <PUBCHEM_CONFORMER_ID>
0327B99500000001

> <PUBCHEM_MMFF94_ENERGY>
78.3854

> <PUBCHEM_FEATURE_SELFOVERLAP>
50.839

> <PUBCHEM_SHAPE_FINGERPRINT>
10 15 10303815384648180615
10066227 112 11891333157705119142
10162869 55 18335701672677427300
10554248 39 17676499345609479932
10577160 183 16370994218237339472
10670039 82 15864065460562526661
10693767 8 18115301173370283690
11135609 99 18273214235709745646
11135926 11 18410293571891850075
11181472 205 13407072541092689758
11386260 185 17023188283701320820
11646440 116 12823290192083112962
12013929 27 18261393420623029303
12120059 9 17894344476673085274
12166972 35 18272653454651973200
12236239 1 18342461409228531808
12539765 74 8574422163414618976
12645989 146 18260272957595812613
12838862 33 17676483957253269880
12895837 130 11891595950861833195
13668630 136 18410011030913735678
13782708 43 17846215510559855336
14178184 131 17774154742716215767
14211702 104 17917439682989210039
14849402 71 10951462935008455570
15064986 266 17822014229689589753
15142383 8 15213020454086408076
15183329 4 17458622306796521649
15198563 99 16588589678788715188
15461852 350 18343591737562992364
16994733 274 8069735279066087646
17686467 74 17846774122834289528
17780758 139 13254797950188609541
18681886 176 18410006667253460480
19958102 18 18114181977743631891
20028762 73 18412547579076457094
2026 5 18412544306285361303
21054139 6 18409730664228712371
21130935 74 18129666288660566290
21150785 3 18334576849957958832
21521239 73 18260266373363221634
21521721 280 11095870563618021164
21781055 127 9943519706063442134
22224240 67 12391506477659301588
2260408 40 11887682796354989184
23081809 10 18342750593634881944
23389318 12 18335707165629336820
23559900 14 18186806910817245416
23569943 247 17978231565711324906
23576562 1 16371866203751492046
2747138 104 14477242661256329098
312425 54 13470696962228123485
3178227 256 13110957631144932934
3711267 37 8646478661888473086
4015057 19 18188502366337314721
4340502 62 15051733058869165964
437815 12 17748829609403689156
439807 62 18341050817978846303
474113 269 16733252441204590674
4938544 92 14835854933070873859
54039377 194 18341333383819461679
5718773 13 18343021107691061435
5758199 1 11239993452169669292
58083652 198 15123496022271080019
59755656 215 17023185990320334240
6004065 56 18411418432421888400
6328613 192 7853854983787324015
9689198 14 8718826509345726812
9953998 17 12967132714154900515
999808 66 17632859733176575335

> <PUBCHEM_SHAPE_MULTIPOLES>
528.97
25.06
2.32
1.3
4.33
1.34
0
16.93
7.2
-2.01
0.33
-1.88
-0.28
-1.04

> <PUBCHEM_SHAPE_SELFOVERLAP>
1171.375

> <PUBCHEM_SHAPE_VOLUME>
283.8

> <PUBCHEM_COORDINATE_TYPE>
2
5
10

$$$$
52934832
  -OEChem-05102415093D

 47 50  0     0  0  0  0  0  0999 V2000
   -2.2893    0.0864   -2.0129 O   0  0  0  0  0  0  0  0  0  0  0  0
   -6.9724    2.2610   -0.5032 O   0  0  0  0  0  0  0  0  0  0  0  0
    0.3870    0.0893   -1.0436 N   0  0  0  0  0  0  0  0  0  0  0  0
   -2.8621   -1.6594   -0.5984 N   0  0  0  0  0  0  0  0  0  0  0  0
    6.1516   -0.3261   -0.1118 N   0  0  0  0  0  0  0  0  0  0  0  0
    7.6971    1.5142    0.0671 N   0  0  0  0  0  0  0  0  0  0  0  0
    8.4367   -0.6240   -0.5539 N   0  0  0  0  0  0  0  0  0  0  0  0
    1.5621   -0.1841   -0.3804 C   0  0  0  0  0  0  0  0  0  0  0  0
    1.3042   -1.2430    0.4931 C   0  0  0  0  0  0  0  0  0  0  0  0
   -0.6019   -0.7581   -0.6211 C   0  0  0  0  0  0  0  0  0  0  0  0
   -0.0648   -1.5951    0.3297 C   0  0  0  0  0  0  0  0  0  0  0  0
    2.8207    0.4186   -0.4856 C   0  0  0  0  0  0  0  0  0  0  0  0
    3.8447   -0.0768    0.3265 C   0  0  0  0  0  0  0  0  0  0  0  0
    2.3519   -1.7251    1.3024 C   0  0  0  0  0  0  0  0  0  0  0  0
    3.6163   -1.1320    1.2075 C   0  0  0  0  0  0  0  0  0  0  0  0
   -1.9398   -0.7274   -1.1210 C   0  0  0  0  0  0  0  0  0  0  0  0
   -4.2413   -1.7687   -1.0168 C   0  0  0  0  0  0  0  0  0  0  0  0
   -5.1475   -0.8951   -0.1985 C   0  0  0  0  0  0  0  0  0  0  0  0
    5.1627    0.5176    0.2496 C   0  0  0  0  0  0  0  0  0  0  0  0
   -5.6458    0.2911   -0.7374 C   0  0  0  0  0  0  0  0  0  0  0  0
   -5.4907   -1.2691    1.1008 C   0  0  0  0  0  0  0  0  0  0  0  0
    5.3600    1.8539    0.5318 C   0  0  0  0  0  0  0  0  0  0  0  0
   -6.4873    1.1033    0.0228 C   0  0  0  0  0  0  0  0  0  0  0  0
   -6.3320   -0.4568    1.8612 C   0  0  0  0  0  0  0  0  0  0  0  0
   -6.8305    0.7293    1.3221 C   0  0  0  0  0  0  0  0  0  0  0  0
    6.6608    2.3015    0.4231 C   0  0  0  0  0  0  0  0  0  0  0  0
    7.3759    0.2303   -0.1821 C   0  0  0  0  0  0  0  0  0  0  0  0
   -7.8266    3.0444    0.3291 C   0  0  0  0  0  0  0  0  0  0  0  0
    0.2743    0.8120   -1.7412 H   0  0  0  0  0  0  0  0  0  0  0  0
   -0.5777   -2.3825    0.8651 H   0  0  0  0  0  0  0  0  0  0  0  0
    2.9823    1.2367   -1.1815 H   0  0  0  0  0  0  0  0  0  0  0  0
    2.1874   -2.5464    1.9939 H   0  0  0  0  0  0  0  0  0  0  0  0
    4.4152   -1.5122    1.8411 H   0  0  0  0  0  0  0  0  0  0  0  0
   -4.5385   -2.8185   -0.9131 H   0  0  0  0  0  0  0  0  0  0  0  0
   -4.3130   -1.5191   -2.0816 H   0  0  0  0  0  0  0  0  0  0  0  0
   -2.5610   -2.3008    0.1276 H   0  0  0  0  0  0  0  0  0  0  0  0
   -5.3817    0.5905   -1.7487 H   0  0  0  0  0  0  0  0  0  0  0  0
   -5.1083   -2.1909    1.5313 H   0  0  0  0  0  0  0  0  0  0  0  0
    4.5606    2.5228    0.8258 H   0  0  0  0  0  0  0  0  0  0  0  0
   -6.5984   -0.7488    2.8730 H   0  0  0  0  0  0  0  0  0  0  0  0
   -7.4785    1.3125    1.9673 H   0  0  0  0  0  0  0  0  0  0  0  0
    6.9137    3.3366    0.6265 H   0  0  0  0  0  0  0  0  0  0  0  0
   -8.1186    3.9278   -0.2481 H   0  0  0  0  0  0  0  0  0  0  0  0
   -7.3006    3.4042    1.2200 H   0  0  0  0  0  0  0  0  0  0  0  0
   -8.7476    2.5072    0.5794 H   0  0  0  0  0  0  0  0  0  0  0  0
    8.2458   -1.5968   -0.7500 H   0  0  0  0  0  0  0  0  0  0  0  0
    9.3743   -0.2527   -0.6194 H   0  0  0  0  0  0  0  0  0  0  0  0
  1 16  2  0  0  0  0
  2 23  1  0  0  0  0
  2 28  1  0  0  0  0
  3  8  1  0  0  0  0
  3 10  1  0  0  0  0
  3 29  1  0  0  0  0
  4 16  1  0  0  0  0
  4 17  1  0  0  0  0
  4 36  1  0  0  0  0
  5 19  2  0  0  0  0
  5 27  1  0  0  0  0
  6 26  1  0  0  0  0
  6 27  2  0  0  0  0
  7 27  1  0  0  0  0
  7 46  1  0  0  0  0
  7 47  1  0  0  0  0
  8  9  2  0  0  0  0
  8 12  1  0  0  0  0
  9 11  1  0  0  0  0
  9 14  1  0  0  0  0
 10 11  2  0  0  0  0
 10 16  1  0  0  0  0
 11 30  1  0  0  0  0
 12 13  2  0  0  0  0
 12 31  1  0  0  0  0
 13 15  1  0  0  0  0
 13 19  1  0  0  0  0
 14 15  2  0  0  0  0
 14 32  1  0  0  0  0
 15 33  1  0  0  0  0
 17 18  1  0  0  0  0
 17 34  1  0  0  0  0
 17 35  1  0  0  0  0
 18 20  2  0  0  0  0
 18 21  1  0  0  0  0
 19 22  1  0  0  0  0
 20 23  1  0  0  0  0
 20 37  1  0  0  0  0
 21 24  2  0  0  0  0
 21 38  1  0  0  0  0
 22 26  2  0  0  0  0
 22 39  1  0  0  0  0
 23 25  2  0  0  0  0
 24 25  1  0  0  0  0
 24 40  1  0  0  0  0
 25 41  1  0  0  0  0
 26 42  1  0  0  0  0
 28 43  1  0  0  0  0
 28 44  1  0  0  0  0
 28 45  1  0  0  0  0
M  END
> <PUBCHEM_COMPOUND_CID>
52934832

> <PUBCHEM_CONFORMER_RMSD>
0.8

> <PUBCHEM_CONFORMER_DIVERSEORDER>
1
96
211
123
150
70
198
101
52
18
152
140
31
122
85
48
88
164
136
144
143
117
159
66
199
36
64
160
128
12
97
73
208
194
204
124
54
99
178
146
69
24
116
104
180
220
115
169
185
71
142
7
84
45
130
189
10
119
81
219
58
137
206
171
141
83
202
30
23
191
51
50
187
132
222
195
113
44
94
172
14
183
201
28
26
209
147
148
86
29
184
5
20
82
32
182
216
13
110
74
131
25
176
162
21
221
93
37
77
53
200
125
181
163
59
80
106
11
193
177
174
75
9
16
205
179
190
47
27
135
165
2
111
151
214
218
6
168
188
4
154
156
108
89
35
167
210
215
145
15
207
212
8
114
166
186
173
98
57
92
49
155
87
149
43
107
91
213
134
105
121
17
157
38
196
33
217
78
72
22
129
102
60
120
67
203
138
192
109
65
56
46
19
63
175
100
79
55
112
126
158
127
95
90
170
153
118
34
139
39
42
61
3
197
62
103
41
133
40
76
68
161

> <PUBCHEM_MMFF94_PARTIAL_CHARGES>
40
1 -0.57
10 -0.24
11 -0.15
12 -0.15
14 -0.15
15 -0.15
16 0.71
17 0.44
18 -0.14
19 0.31
2 -0.36
20 -0.15
21 -0.15
22 -0.15
23 0.08
24 -0.15
25 -0.15
26 0.16
27 0.72
28 0.28
29 0.27
3 0.03
30 0.15
31 0.15
32 0.15
33 0.15
36 0.37
37 0.15
38 0.15
39 0.15
4 -0.73
40 0.15
41 0.15
42 0.15
46 0.4
47 0.4
5 -0.62
6 -0.62
7 -0.9
8 -0.15

> <PUBCHEM_EFFECTIVE_ROTOR_COUNT>
6

> <PUBCHEM_PHARMACOPHORE_FEATURES>
12
1 1 acceptor
1 2 acceptor
1 3 cation
1 3 donor
1 4 donor
1 5 acceptor
1 7 donor
4 5 6 7 27 cation
5 3 8 9 10 11 rings
6 18 20 21 23 24 25 rings
6 5 6 19 22 26 27 rings
6 8 9 12 13 14 15 rings

> <PUBCHEM_HEAVY_ATOM_COUNT>
28

> <PUBCHEM_ATOM_DEF_STEREO_COUNT>
0

> <PUBCHEM_ATOM_UDEF_STEREO_COUNT>
0

> <PUBCHEM_BOND_DEF_STEREO_COUNT>
0

> <PUBCHEM_BOND_UDEF_STEREO_COUNT>
0

> <PUBCHEM_ISOTOPIC_ATOM_COUNT>
0

> <PUBCHEM_COMPONENT_COUNT>
1

> <PUBCHEM_CACTVS_TAUTO_COUNT>
45

> <PUBCHEM_CONFORMER_ID>
0327B8B000000001

> <PUBCHEM_MMFF94_ENERGY>
80.5453

> <PUBCHEM_FEATURE_SELFOVERLAP>
60.988

> <PUBCHEM_SHAPE_FINGERPRINT>
10 15 18259984856111947465
10049733 71 17058101996190459990
10066227 112 18060136548351689241
10554248 39 16845293800111340524
10577160 183 15338836421973479966
10670039 82 15985107388687209683
11135609 99 8070017874765615624
11181472 205 17417547856209894360
11315181 36 18260261967903149599
11456790 92 18333723642400456312
11646440 116 17967249832376929524
12236239 1 18272086140884723326
12539765 74 18410864291610065022
12730499 353 18040428898564053602
13668630 136 9871752390418870505
13782708 43 11963657933305830580
14211702 104 12035716579590121873
14251752 14 16343707655509147582
14251764 18 12757147991892560426
14765038 42 17967249789227088955
14849402 71 17969227917861651380
14933364 13 18412543241011028582
15142383 8 16559033792642872954
15183329 4 14117801305907844095
15461852 350 17846490466367087479
15728490 51 10809347750309372792
1577012 14 18412257325049131531
16994733 274 18270956955480854752
17780758 139 17167583787676718275
18603816 31 12901843731447676505
2026 5 9655579613022969389
21033648 29 18117550946317523128
21054139 6 10087641507291577269
21130935 74 18113614594914820754
21150785 3 10231756682308236910
21521721 280 18114460167354619722
21585482 111 18263360300880615749
2260408 40 17895198766098642655
23389318 12 10663813105649249386
23576562 1 14907318910324424296
24771293 8 18117552041371101468
2747138 104 17022903467166128444
2838139 119 15769777957608843867
312425 54 17095527262858846443
3178227 256 17167863088877841652
3663271 9 18040995138061250491
3711267 37 18340496650817606320
4093350 32 18408886205377107922
4169191 19 17703515424024410767
4340502 62 15574985179250145218
437795 150 13326269513241337653
474113 269 14620245088262953828
4938544 92 18408040724306546159
5028188 123 18335708282078474766
5104073 3 17169250581988627320
5385378 56 17967244283342753186
54039377 194 8574421033706513049
5718773 13 8502368941014931629
5758199 1 17968094239736802010
59755656 215 13973693832046750790
6004065 56 9223226352350449414
6328613 192 18273214214018527249
7226269 152 18131072632593323297
9689198 14 18410859871233680698
9953998 17 17530966874255736597
999808 66 11602822398221226105

> <PUBCHEM_SHAPE_MULTIPOLES>
539.58
26.25
2.25
1.31
4.55
1.4
0.1
16.1
3.89
-2.26
0.29
-1.62
-0.31
-0.11

> <PUBCHEM_SHAPE_SELFOVERLAP>
1192.579

> <PUBCHEM_SHAPE_VOLUME>
288.6

> <PUBCHEM_COORDINATE_TYPE>
2
5
10

$$$$
57403071
  -OEChem-05102415093D

 48 51  0     0  0  0  0  0  0999 V2000
   -2.2441   -0.2717    1.9910 O   0  0  0  0  0  0  0  0  0  0  0  0
   -6.8020   -2.4841    0.1826 O   0  0  0  0  0  0  0  0  0  0  0  0
    0.4328   -0.0217    1.0562 N   0  0  0  0  0  0  0  0  0  0  0  0
   -2.9005    1.6003    0.7903 N   0  0  0  0  0  0  0  0  0  0  0  0
    7.8300   -1.0731   -0.1968 N   0  0  0  0  0  0  0  0  0  0  0  0
    6.9471   -3.2623    0.1238 N   0  0  0  0  0  0  0  0  0  0  0  0
    1.5950    0.3890    0.4429 C   0  0  0  0  0  0  0  0  0  0  0  0
    1.2863    1.5308   -0.2998 C   0  0  0  0  0  0  0  0  0  0  0  0
   -0.5968    0.8190    0.7282 C   0  0  0  0  0  0  0  0  0  0  0  0
   -0.0998    1.7905   -0.1096 C   0  0  0  0  0  0  0  0  0  0  0  0
    3.8831    0.4837   -0.2480 C   0  0  0  0  0  0  0  0  0  0  0  0
    2.8826   -0.1573    0.4882 C   0  0  0  0  0  0  0  0  0  0  0  0
    2.3111    2.1594   -1.0345 C   0  0  0  0  0  0  0  0  0  0  0  0
    3.6040    1.6243   -0.9983 C   0  0  0  0  0  0  0  0  0  0  0  0
   -1.9335    0.6602    1.2069 C   0  0  0  0  0  0  0  0  0  0  0  0
    5.2296   -0.0478   -0.2292 C   0  0  0  0  0  0  0  0  0  0  0  0
   -4.2853    1.5882    1.2044 C   0  0  0  0  0  0  0  0  0  0  0  0
   -5.1416    0.7744    0.2778 C   0  0  0  0  0  0  0  0  0  0  0  0
    5.4401   -1.4119   -0.0604 C   0  0  0  0  0  0  0  0  0  0  0  0
    6.3178    0.8042   -0.3818 C   0  0  0  0  0  0  0  0  0  0  0  0
   -5.5801   -0.4918    0.6653 C   0  0  0  0  0  0  0  0  0  0  0  0
   -5.4982    1.2842   -0.9708 C   0  0  0  0  0  0  0  0  0  0  0  0
   -6.3753   -1.2483   -0.1956 C   0  0  0  0  0  0  0  0  0  0  0  0
    6.7477   -1.8701   -0.0515 C   0  0  0  0  0  0  0  0  0  0  0  0
   -6.2931    0.5276   -1.8319 C   0  0  0  0  0  0  0  0  0  0  0  0
    7.5861    0.2469   -0.3586 C   0  0  0  0  0  0  0  0  0  0  0  0
   -6.7319   -0.7386   -1.4442 C   0  0  0  0  0  0  0  0  0  0  0  0
   -7.6110   -3.2041   -0.7466 C   0  0  0  0  0  0  0  0  0  0  0  0
    0.3547   -0.8280    1.6609 H   0  0  0  0  0  0  0  0  0  0  0  0
   -0.6504    2.6095   -0.5519 H   0  0  0  0  0  0  0  0  0  0  0  0
    3.0645   -1.0287    1.1082 H   0  0  0  0  0  0  0  0  0  0  0  0
    2.1053    3.0451   -1.6289 H   0  0  0  0  0  0  0  0  0  0  0  0
    4.3575    2.1218   -1.6039 H   0  0  0  0  0  0  0  0  0  0  0  0
   -4.6360    2.6264    1.2243 H   0  0  0  0  0  0  0  0  0  0  0  0
   -4.3485    1.2089    2.2307 H   0  0  0  0  0  0  0  0  0  0  0  0
   -2.6300    2.3389    0.1496 H   0  0  0  0  0  0  0  0  0  0  0  0
    4.6256   -2.1236    0.0323 H   0  0  0  0  0  0  0  0  0  0  0  0
    6.2278    1.8798   -0.4873 H   0  0  0  0  0  0  0  0  0  0  0  0
   -5.3052   -0.8970    1.6360 H   0  0  0  0  0  0  0  0  0  0  0  0
   -5.1623    2.2693   -1.2836 H   0  0  0  0  0  0  0  0  0  0  0  0
   -6.5700    0.9253   -2.8039 H   0  0  0  0  0  0  0  0  0  0  0  0
    8.4687    0.8689   -0.4659 H   0  0  0  0  0  0  0  0  0  0  0  0
   -7.3462   -1.2721   -2.1614 H   0  0  0  0  0  0  0  0  0  0  0  0
    6.2543   -3.7866    0.6439 H   0  0  0  0  0  0  0  0  0  0  0  0
    7.9048   -3.5906    0.1358 H   0  0  0  0  0  0  0  0  0  0  0  0
   -8.5576   -2.6881   -0.9401 H   0  0  0  0  0  0  0  0  0  0  0  0
   -7.0634   -3.4267   -1.6686 H   0  0  0  0  0  0  0  0  0  0  0  0
   -7.8594   -4.1642   -0.2826 H   0  0  0  0  0  0  0  0  0  0  0  0
  1 15  2  0  0  0  0
  2 23  1  0  0  0  0
  2 28  1  0  0  0  0
  3  7  1  0  0  0  0
  3  9  1  0  0  0  0
  3 29  1  0  0  0  0
  4 15  1  0  0  0  0
  4 17  1  0  0  0  0
  4 36  1  0  0  0  0
  5 24  2  0  0  0  0
  5 26  1  0  0  0  0
  6 24  1  0  0  0  0
  6 44  1  0  0  0  0
  6 45  1  0  0  0  0
  7  8  2  0  0  0  0
  7 12  1  0  0  0  0
  8 10  1  0  0  0  0
  8 13  1  0  0  0  0
  9 10  2  0  0  0  0
  9 15  1  0  0  0  0
 10 30  1  0  0  0  0
 11 12  2  0  0  0  0
 11 14  1  0  0  0  0
 11 16  1  0  0  0  0
 12 31  1  0  0  0  0
 13 14  2  0  0  0  0
 13 32  1  0  0  0  0
 14 33  1  0  0  0  0
 16 19  2  0  0  0  0
 16 20  1  0  0  0  0
 17 18  1  0  0  0  0
 17 34  1  0  0  0  0
 17 35  1  0  0  0  0
 18 21  2  0  0  0  0
 18 22  1  0  0  0  0
 19 24  1  0  0  0  0
 19 37  1  0  0  0  0
 20 26  2  0  0  0  0
 20 38  1  0  0  0  0
 21 23  1  0  0  0  0
 21 39  1  0  0  0  0
 22 25  2  0  0  0  0
 22 40  1  0  0  0  0
 23 27  2  0  0  0  0
 25 27  1  0  0  0  0
 25 41  1  0  0  0  0
 26 42  1  0  0  0  0
 27 43  1  0  0  0  0
 28 46  1  0  0  0  0
 28 47  1  0  0  0  0
 28 48  1  0  0  0  0
M  END
> <PUBCHEM_COMPOUND_CID>
57403071

> <PUBCHEM_CONFORMER_RMSD>
0.8

> <PUBCHEM_CONFORMER_DIVERSEORDER>
1
18
83
91
138
63
163
82
162
43
16
72
157
29
17
97
67
35
45
85
136
81
95
133
118
61
46
38
107
80
33
145
44
152
129
132
117
22
60
31
150
114
55
156
58
158
87
69
59
20
24
144
62
15
113
154
103
148
77
57
101
121
39
75
161
28
68
89
120
125
84
104
48
124
34
7
127
147
47
159
99
146
30
79
66
70
78
137
86
160
135
100
151
11
3
139
149
96
9
12
131
8
53
93
130
37
105
111
155
56
88
2
13
5
36
153
123
122
54
65
4
49
90
102
40
74
64
94
27
10
50
140
26
14
119
32
109
134
71
21
128
98
73
141
25
116
110
143
42
92
19
23
51
142
115
6
108
76
41
126
106
52
112

> <PUBCHEM_MMFF94_PARTIAL_CHARGES>
40
1 -0.57
10 -0.15
12 -0.15
13 -0.15
14 -0.15
15 0.71
17 0.44
18 -0.14
19 -0.15
2 -0.36
20 -0.15
21 -0.15
22 -0.15
23 0.08
24 0.41
25 -0.15
26 0.16
27 -0.15
28 0.28
29 0.27
3 0.03
30 0.15
31 0.15
32 0.15
33 0.15
36 0.37
37 0.15
38 0.15
39 0.15
4 -0.73
40 0.15
41 0.15
42 0.15
43 0.15
44 0.4
45 0.4
5 -0.62
6 -0.9
7 -0.15
9 -0.24

> <PUBCHEM_EFFECTIVE_ROTOR_COUNT>
6

> <PUBCHEM_PHARMACOPHORE_FEATURES>
11
1 1 acceptor
1 2 acceptor
1 3 cation
1 3 donor
1 4 donor
1 6 donor
3 5 6 24 cation
5 3 7 8 9 10 rings
6 18 21 22 23 25 27 rings
6 5 16 19 20 24 26 rings
6 7 8 11 12 13 14 rings

> <PUBCHEM_HEAVY_ATOM_COUNT>
28

> <PUBCHEM_ATOM_DEF_STEREO_COUNT>
0

> <PUBCHEM_ATOM_UDEF_STEREO_COUNT>
0

> <PUBCHEM_BOND_DEF_STEREO_COUNT>
0

> <PUBCHEM_BOND_UDEF_STEREO_COUNT>
0

> <PUBCHEM_ISOTOPIC_ATOM_COUNT>
0

> <PUBCHEM_COMPONENT_COUNT>
1

> <PUBCHEM_CACTVS_TAUTO_COUNT>
45

> <PUBCHEM_CONFORMER_ID>
036BE6BF00000001

> <PUBCHEM_MMFF94_ENERGY>
87.6946

> <PUBCHEM_FEATURE_SELFOVERLAP>
55.913

> <PUBCHEM_SHAPE_FINGERPRINT>
10 15 10015866487868243741
10066227 112 11746935395241073679
10162869 55 18408321117115035172
10554248 39 17676780829033856292
10670039 82 15936403434471346021
10693767 8 18188485775379615306
11135609 99 18201719595814600846
11135926 11 18410575051242616803
11386260 185 17168428267830094356
11456790 92 10231752263589068158
11646440 116 12751233697461769826
12013929 27 18189335830980256455
12082328 90 18411134723898614725
12120059 9 17821722841649123658
12166972 35 18272371983817314008
12236239 1 18342742888405329224
125118 31 8790884086483802198
12539765 74 8358251580202907840
12645989 146 18334863800738813060
12838862 33 17748823030494505384
12895837 130 11819538356844965323
13668630 136 18410011039598492381
13782708 43 17988924435995836760
14178184 131 17773873272092455703
14211702 104 17917722266183462631
14765038 42 11167944658377708997
14849402 71 10159111966299708794
15064986 266 17894352203545557665
15183329 4 17530678805718119817
15198563 99 16661210222716897316
15320294 125 17703785951250583517
15461852 350 18272097101952492676
16994733 274 7853563596368882110
1768 124 18272092652646254342
17686467 74 17774999111684815040
17780758 139 13182742559537528197
18681886 176 18410569621517764305
20028762 73 18340770360471950510
2026 5 18413106174091601447
21130935 74 18200878366772712178
21521239 73 18260829323316565010
21521721 280 10735866267317772812
22224240 67 12247672764417803020
23081809 10 18342469118642353568
23389318 12 18335425694894943372
23522609 53 18053418511122448496
23559900 14 18187369864954870800
23569943 247 18121218671862742178
23576562 1 16516543246416292318
23729398 52 11239735072108445996
2747138 104 14261633928470366346
312425 54 13398641571613984885
3178227 256 13039183715296514908
3504750 166 18125164827230856336
3711267 37 8286192886310999326
4015057 19 18188783850072784537
4169191 19 8790888462965364747
4340502 62 14979956939734180100
437815 12 17821731632513806964
439807 62 18341614871796884959
44555599 121 8142075468972601598
44880568 143 17530678814598829285
4938544 92 14836137511922718883
54039377 194 18341333392483197319
5718773 13 18341894086544488507
5758199 1 11167936957511578244
58083652 198 15267049368611231905
59682541 35 12823288014197012189
59755656 215 17095525063561426856
6004065 56 18411699915904241560
6328613 192 7997970167684211615
9689198 14 8718826513540512792
9953998 17 12823300104951956183
999808 66 17632579370728230639

> <PUBCHEM_SHAPE_MULTIPOLES>
544.56
25.76
2.62
1.28
0.64
2.07
-0.01
18.59
7.08
-0.87
0.37
-2
-0.28
-1.31

> <PUBCHEM_SHAPE_SELFOVERLAP>
1204.978

> <PUBCHEM_SHAPE_VOLUME>
292.6

> <PUBCHEM_COORDINATE_TYPE>
2
5
10

$$$$
57394348
  -OEChem-05102415093D

 43 46  0     0  0  0  0  0  0999 V2000
   -1.7242   -0.3829    1.9978 O   0  0  0  0  0  0  0  0  0  0  0  0
   -6.4105   -2.2509    0.1304 O   0  0  0  0  0  0  0  0  0  0  0  0
    0.9714   -0.3069    1.0842 N   0  0  0  0  0  0  0  0  0  0  0  0
   -2.2403    1.5452    0.8175 N   0  0  0  0  0  0  0  0  0  0  0  0
    4.2273    1.1679   -0.9336 N   0  0  0  0  0  0  0  0  0  0  0  0
    7.8327   -0.7919   -0.7147 N   0  0  0  0  0  0  0  0  0  0  0  0
    7.5547   -1.8357    0.0849 N   0  0  0  0  0  0  0  0  0  0  0  0
    2.1628    0.0311    0.4837 C   0  0  0  0  0  0  0  0  0  0  0  0
    1.9390    1.2002   -0.2450 C   0  0  0  0  0  0  0  0  0  0  0  0
    0.0043    0.6067    0.7603 C   0  0  0  0  0  0  0  0  0  0  0  0
    0.5733    1.5524   -0.0615 C   0  0  0  0  0  0  0  0  0  0  0  0
    3.4045   -0.5962    0.5261 C   0  0  0  0  0  0  0  0  0  0  0  0
    4.3931    0.0355   -0.2121 C   0  0  0  0  0  0  0  0  0  0  0  0
   -1.3437    0.5351    1.2280 C   0  0  0  0  0  0  0  0  0  0  0  0
   -3.6256    1.6238    1.2222 C   0  0  0  0  0  0  0  0  0  0  0  0
    3.0068    1.7561   -0.9563 C   0  0  0  0  0  0  0  0  0  0  0  0
   -4.5293    0.8832    0.2794 C   0  0  0  0  0  0  0  0  0  0  0  0
    5.7173   -0.5191   -0.2440 C   0  0  0  0  0  0  0  0  0  0  0  0
   -5.0573   -0.3544    0.6473 C   0  0  0  0  0  0  0  0  0  0  0  0
   -4.8403    1.4322   -0.9648 C   0  0  0  0  0  0  0  0  0  0  0  0
   -5.8964   -1.0430   -0.2287 C   0  0  0  0  0  0  0  0  0  0  0  0
    6.7661    0.0270   -0.9430 C   0  0  0  0  0  0  0  0  0  0  0  0
    6.2610   -1.6637    0.3692 C   0  0  0  0  0  0  0  0  0  0  0  0
   -5.6791    0.7435   -1.8409 C   0  0  0  0  0  0  0  0  0  0  0  0
   -6.2075   -0.4940   -1.4729 C   0  0  0  0  0  0  0  0  0  0  0  0
   -7.2604   -2.9012   -0.8135 C   0  0  0  0  0  0  0  0  0  0  0  0
    0.8337   -1.1136    1.6776 H   0  0  0  0  0  0  0  0  0  0  0  0
    0.0836    2.4129   -0.4967 H   0  0  0  0  0  0  0  0  0  0  0  0
    3.5553   -1.5029    1.0981 H   0  0  0  0  0  0  0  0  0  0  0  0
   -3.9037    2.6834    1.2536 H   0  0  0  0  0  0  0  0  0  0  0  0
   -3.7225    1.2367    2.2430 H   0  0  0  0  0  0  0  0  0  0  0  0
    2.9204    2.6603   -1.5470 H   0  0  0  0  0  0  0  0  0  0  0  0
   -1.9145    2.2713    0.1884 H   0  0  0  0  0  0  0  0  0  0  0  0
   -4.8183   -0.7900    1.6144 H   0  0  0  0  0  0  0  0  0  0  0  0
   -4.4345    2.3955   -1.2624 H   0  0  0  0  0  0  0  0  0  0  0  0
    6.8623    0.9022   -1.5709 H   0  0  0  0  0  0  0  0  0  0  0  0
    5.7811   -2.3874    1.0128 H   0  0  0  0  0  0  0  0  0  0  0  0
   -5.9205    1.1718   -2.8095 H   0  0  0  0  0  0  0  0  0  0  0  0
   -6.8519   -0.9745   -2.2011 H   0  0  0  0  0  0  0  0  0  0  0  0
    8.7755   -0.6986   -1.0714 H   0  0  0  0  0  0  0  0  0  0  0  0
   -8.1675   -2.3185   -1.0066 H   0  0  0  0  0  0  0  0  0  0  0  0
   -6.7226   -3.1496   -1.7348 H   0  0  0  0  0  0  0  0  0  0  0  0
   -7.5782   -3.8477   -0.3640 H   0  0  0  0  0  0  0  0  0  0  0  0
  1 14  2  0  0  0  0
  2 21  1  0  0  0  0
  2 26  1  0  0  0  0
  3  8  1  0  0  0  0
  3 10  1  0  0  0  0
  3 27  1  0  0  0  0
  4 14  1  0  0  0  0
  4 15  1  0  0  0  0
  4 33  1  0  0  0  0
  5 13  2  0  0  0  0
  5 16  1  0  0  0  0
  6  7  1  0  0  0  0
  6 22  1  0  0  0  0
  6 40  1  0  0  0  0
  7 23  2  0  0  0  0
  8  9  1  0  0  0  0
  8 12  2  0  0  0  0
  9 11  1  0  0  0  0
  9 16  2  0  0  0  0
 10 11  2  0  0  0  0
 10 14  1  0  0  0  0
 11 28  1  0  0  0  0
 12 13  1  0  0  0  0
 12 29  1  0  0  0  0
 13 18  1  0  0  0  0
 15 17  1  0  0  0  0
 15 30  1  0  0  0  0
 15 31  1  0  0  0  0
 16 32  1  0  0  0  0
 17 19  2  0  0  0  0
 17 20  1  0  0  0  0
 18 22  2  0  0  0  0
 18 23  1  0  0  0  0
 19 21  1  0  0  0  0
 19 34  1  0  0  0  0
 20 24  2  0  0  0  0
 20 35  1  0  0  0  0
 21 25  2  0  0  0  0
 22 36  1  0  0  0  0
 23 37  1  0  0  0  0
 24 25  1  0  0  0  0
 24 38  1  0  0  0  0
 25 39  1  0  0  0  0
 26 41  1  0  0  0  0
 26 42  1  0  0  0  0
 26 43  1  0  0  0  0
M  END
> <PUBCHEM_COMPOUND_CID>
57394348

> <PUBCHEM_CONFORMER_RMSD>
0.8

> <PUBCHEM_CONFORMER_DIVERSEORDER>
1
63
52
42
43
39
15
31
56
45
22
40
18
64
17
8
36
67
10
12
62
34
33
30
54
55
66
2
58
47
59
13
28
16
7
53
29
48
24
49
19
11
57
44
61
60
5
51
23
14
3
46
37
38
9
21
41
27
4
50
65
20
25
6
26
35
32

> <PUBCHEM_MMFF94_PARTIAL_CHARGES>
37
1 -0.57
10 -0.24
11 -0.15
12 -0.15
13 0.36
14 0.71
15 0.44
16 0.16
17 -0.14
18 -0.05
19 -0.15
2 -0.36
20 -0.15
21 0.08
22 -0.3
23 0.14
24 -0.15
25 -0.15
26 0.28
27 0.27
28 0.15
29 0.15
3 0.03
32 0.15
33 0.37
34 0.15
35 0.15
36 0.15
37 0.15
38 0.15
39 0.15
4 -0.73
40 0.27
5 -0.62
6 0.3
7 -0.71
8 -0.15

> <PUBCHEM_EFFECTIVE_ROTOR_COUNT>
6

> <PUBCHEM_PHARMACOPHORE_FEATURES>
12
1 1 acceptor
1 2 acceptor
1 3 cation
1 3 donor
1 4 donor
1 5 acceptor
1 6 donor
1 7 acceptor
5 3 8 9 10 11 rings
5 6 7 18 22 23 rings
6 17 19 20 21 24 25 rings
6 5 8 9 12 13 16 rings

> <PUBCHEM_HEAVY_ATOM_COUNT>
26

> <PUBCHEM_ATOM_DEF_STEREO_COUNT>
0

> <PUBCHEM_ATOM_UDEF_STEREO_COUNT>
0

> <PUBCHEM_BOND_DEF_STEREO_COUNT>
0

> <PUBCHEM_BOND_UDEF_STEREO_COUNT>
0

> <PUBCHEM_ISOTOPIC_ATOM_COUNT>
0

> <PUBCHEM_COMPONENT_COUNT>
1

> <PUBCHEM_CACTVS_TAUTO_COUNT>
36

> <PUBCHEM_CONFORMER_ID>
036BC4AC00000001

> <PUBCHEM_MMFF94_ENERGY>
56.9919

> <PUBCHEM_FEATURE_SELFOVERLAP>
60.996

> <PUBCHEM_SHAPE_FINGERPRINT>
10066227 112 14057009325488619918
10554248 39 16588025672126047298
10577160 183 16588292891815769834
10670039 82 16081365237673232493
10693767 8 18115301169159757906
11963148 33 18342171133875141534
12166972 35 18272654554242696272
12236239 1 18341898467891412304
12539765 74 8502362370437649648
12895837 130 12252165387380246287
13668630 136 18342177756523781318
13782708 43 17704070647426404128
14211702 104 17845945038920573158
14849402 71 11455302048167185962
14931854 50 18041547140544285147
15064986 266 17894354398157866305
15183329 4 17676202459519996930
15461852 350 18272097089294197284
15716309 27 16415477155783084305
16110190 28 11383831584784601811
16994733 274 10737297865700876942
17093844 174 15410613649864246409
17686467 74 17774997995341302264
17780758 139 13110962033681538237
18643901 69 18408602592155114455
18681886 176 18411133658377323920
190975 80 14620501346421214380
20028762 73 18413390913105936470
2026 5 18343864407593860007
21054139 6 18410575080394927354
21130935 74 18059016065269369986
21150785 3 18408045121920306668
21521239 73 18260546753239335818
21521721 280 11671767266493507134
21623969 137 13326853327353954740
21781055 127 9727630602265599910
22288116 15 17676491674661186939
22393880 68 18040983060877048465
2260408 40 11743849083429878296
23081809 10 18342750593772006016
23559900 14 18187088394410290360
23569943 247 17838629851572143394
23576562 1 16516544337528032470
2838139 119 16153428337727390989
312425 54 13326862149517156181
3178227 256 13039180408345822286
3383291 50 17561081432014269359
3663271 9 11384114141840149509
3711267 37 8574418868932823630
397830 11 16414897726335430882
4015057 19 18188502361847162113
4340502 62 14908180825083877204
439807 62 18340487863672493879
474113 269 16661194847198382714
4938544 92 14764078818246647059
5104073 3 11959737062130684533
54039377 194 18342459283594390151
58083652 198 14620499130750846931
59755656 215 17022904515375207106
6328613 192 14345808153467906446
9689198 14 8358254869630423306
9953998 17 12967132709754522675
999808 66 17275105033350501983

> <PUBCHEM_SHAPE_MULTIPOLES>
498.42
23.23
2.1
1.38
8.28
0.96
0.01
15.22
8.32
-2.5
0.24
-1.46
-0.23
-1.03

> <PUBCHEM_SHAPE_SELFOVERLAP>
1106.104

> <PUBCHEM_SHAPE_VOLUME>
268.2

> <PUBCHEM_COORDINATE_TYPE>
2
5
10

$$$$
57403072
  -OEChem-05102415093D

 46 49  0     0  0  0  0  0  0999 V2000
   -2.0182   -0.4469    2.0299 O   0  0  0  0  0  0  0  0  0  0  0  0
   -6.6552   -2.2511   -0.0148 O   0  0  0  0  0  0  0  0  0  0  0  0
    0.7008   -0.3491    1.1907 N   0  0  0  0  0  0  0  0  0  0  0  0
   -2.5007    1.5158    0.8931 N   0  0  0  0  0  0  0  0  0  0  0  0
    4.0106    1.1780   -0.6961 N   0  0  0  0  0  0  0  0  0  0  0  0
    7.4990   -1.0599   -0.6615 N   0  0  0  0  0  0  0  0  0  0  0  0
    7.3975   -1.6366    0.5481 N   0  0  0  0  0  0  0  0  0  0  0  0
    1.9081    0.0040    0.6322 C   0  0  0  0  0  0  0  0  0  0  0  0
    1.7049    1.1943   -0.0677 C   0  0  0  0  0  0  0  0  0  0  0  0
   -0.2565    0.5753    0.8681 C   0  0  0  0  0  0  0  0  0  0  0  0
    0.3352    1.5435    0.0896 C   0  0  0  0  0  0  0  0  0  0  0  0
    3.1476   -0.6265    0.6892 C   0  0  0  0  0  0  0  0  0  0  0  0
    4.1561    0.0248   -0.0038 C   0  0  0  0  0  0  0  0  0  0  0  0
    5.4801   -0.5312   -0.0168 C   0  0  0  0  0  0  0  0  0  0  0  0
    2.7919    1.7688   -0.7341 C   0  0  0  0  0  0  0  0  0  0  0  0
   -1.6164    0.4925    1.2976 C   0  0  0  0  0  0  0  0  0  0  0  0
   -3.8962    1.5850    1.2631 C   0  0  0  0  0  0  0  0  0  0  0  0
    6.3775   -0.3855   -1.0464 C   0  0  0  0  0  0  0  0  0  0  0  0
   -4.7753    0.8739    0.2754 C   0  0  0  0  0  0  0  0  0  0  0  0
    6.1621   -1.3101    0.9370 C   0  0  0  0  0  0  0  0  0  0  0  0
    6.3017    0.3114   -2.3434 C   0  0  0  0  0  0  0  0  0  0  0  0
   -5.3142   -0.3729    0.5929 C   0  0  0  0  0  0  0  0  0  0  0  0
   -5.0526    1.4594   -0.9600 C   0  0  0  0  0  0  0  0  0  0  0  0
   -6.1306   -1.0342   -0.3248 C   0  0  0  0  0  0  0  0  0  0  0  0
   -5.8686    0.7981   -1.8778 C   0  0  0  0  0  0  0  0  0  0  0  0
   -6.4079   -0.4486   -1.5602 C   0  0  0  0  0  0  0  0  0  0  0  0
   -7.4804   -2.8722   -0.9996 C   0  0  0  0  0  0  0  0  0  0  0  0
    0.5464   -1.1725    1.7565 H   0  0  0  0  0  0  0  0  0  0  0  0
   -0.1419    2.4172   -0.3332 H   0  0  0  0  0  0  0  0  0  0  0  0
    3.2881   -1.5530    1.2323 H   0  0  0  0  0  0  0  0  0  0  0  0
    2.7221    2.6898   -1.3003 H   0  0  0  0  0  0  0  0  0  0  0  0
   -4.1739    2.6438    1.3179 H   0  0  0  0  0  0  0  0  0  0  0  0
   -4.0207    1.1686    2.2692 H   0  0  0  0  0  0  0  0  0  0  0  0
   -2.1576    2.2594    0.2943 H   0  0  0  0  0  0  0  0  0  0  0  0
    5.8189   -1.6555    1.9023 H   0  0  0  0  0  0  0  0  0  0  0  0
    8.3674   -1.1680   -1.1708 H   0  0  0  0  0  0  0  0  0  0  0  0
   -5.1015   -0.8369    1.5528 H   0  0  0  0  0  0  0  0  0  0  0  0
    6.3437    1.3963   -2.2035 H   0  0  0  0  0  0  0  0  0  0  0  0
    7.1332    0.0306   -2.9989 H   0  0  0  0  0  0  0  0  0  0  0  0
    5.3753    0.0621   -2.8708 H   0  0  0  0  0  0  0  0  0  0  0  0
   -4.6382    2.4303   -1.2185 H   0  0  0  0  0  0  0  0  0  0  0  0
   -6.0837    1.2549   -2.8396 H   0  0  0  0  0  0  0  0  0  0  0  0
   -7.0332   -0.9065   -2.3190 H   0  0  0  0  0  0  0  0  0  0  0  0
   -8.3814   -2.2824   -1.1994 H   0  0  0  0  0  0  0  0  0  0  0  0
   -6.9186   -3.0945   -1.9131 H   0  0  0  0  0  0  0  0  0  0  0  0
   -7.8110   -3.8307   -0.5863 H   0  0  0  0  0  0  0  0  0  0  0  0
  1 16  2  0  0  0  0
  2 24  1  0  0  0  0
  2 27  1  0  0  0  0
  3  8  1  0  0  0  0
  3 10  1  0  0  0  0
  3 28  1  0  0  0  0
  4 16  1  0  0  0  0
  4 17  1  0  0  0  0
  4 34  1  0  0  0  0
  5 13  2  0  0  0  0
  5 15  1  0  0  0  0
  6  7  1  0  0  0  0
  6 18  1  0  0  0  0
  6 36  1  0  0  0  0
  7 20  2  0  0  0  0
  8  9  1  0  0  0  0
  8 12  2  0  0  0  0
  9 11  1  0  0  0  0
  9 15  2  0  0  0  0
 10 11  2  0  0  0  0
 10 16  1  0  0  0  0
 11 29  1  0  0  0  0
 12 13  1  0  0  0  0
 12 30  1  0  0  0  0
 13 14  1  0  0  0  0
 14 18  2  0  0  0  0
 14 20  1  0  0  0  0
 15 31  1  0  0  0  0
 17 19  1  0  0  0  0
 17 32  1  0  0  0  0
 17 33  1  0  0  0  0
 18 21  1  0  0  0  0
 19 22  2  0  0  0  0
 19 23  1  0  0  0  0
 20 35  1  0  0  0  0
 21 38  1  0  0  0  0
 21 39  1  0  0  0  0
 21 40  1  0  0  0  0
 22 24  1  0  0  0  0
 22 37  1  0  0  0  0
 23 25  2  0  0  0  0
 23 41  1  0  0  0  0
 24 26  2  0  0  0  0
 25 26  1  0  0  0  0
 25 42  1  0  0  0  0
 26 43  1  0  0  0  0
 27 44  1  0  0  0  0
 27 45  1  0  0  0  0
 27 46  1  0  0  0  0
M  END
> <PUBCHEM_COMPOUND_CID>
57403072

> <PUBCHEM_CONFORMER_RMSD>
0.8

> <PUBCHEM_CONFORMER_DIVERSEORDER>
1
22
139
192
96
102
138
123
194
26
50
77
109
187
72
161
163
71
115
132
48
91
182
117
20
67
195
101
74
57
47
106
134
169
112
37
82
141
145
166
75
137
7
17
193
51
46
154
41
156
125
172
39
190
97
171
151
135
86
8
68
129
90
167
119
61
99
13
35
62
83
38
133
153
162
49
104
53
105
174
66
131
84
114
28
170
94
160
181
3
143
64
69
121
173
73
180
155
59
116
21
100
111
113
147
79
150
165
70
6
40
12
88
27
30
164
183
60
149
63
179
176
184
85
144
23
33
16
19
78
128
55
140
175
58
24
14
126
92
122
65
89
136
36
159
5
177
158
32
98
127
29
168
31
15
118
10
54
25
178
11
120
107
43
18
52
185
152
56
45
110
42
2
4
76
146
34
44
87
189
93
108
80
95
142
103
9
186
81
191
124
148
157
130
188

> <PUBCHEM_MMFF94_PARTIAL_CHARGES>
37
1 -0.57
10 -0.24
11 -0.15
12 -0.15
13 0.36
14 -0.05
15 0.16
16 0.71
17 0.44
18 -0.33
19 -0.14
2 -0.36
20 0.14
21 0.18
22 -0.15
23 -0.15
24 0.08
25 -0.15
26 -0.15
27 0.28
28 0.27
29 0.15
3 0.03
30 0.15
31 0.15
34 0.37
35 0.15
36 0.27
37 0.15
4 -0.73
41 0.15
42 0.15
43 0.15
5 -0.62
6 0.3
7 -0.71
8 -0.15

> <PUBCHEM_EFFECTIVE_ROTOR_COUNT>
6

> <PUBCHEM_PHARMACOPHORE_FEATURES>
12
1 1 acceptor
1 2 acceptor
1 3 cation
1 3 donor
1 4 donor
1 5 acceptor
1 6 donor
1 7 acceptor
5 3 8 9 10 11 rings
5 6 7 14 18 20 rings
6 19 22 23 24 25 26 rings
6 5 8 9 12 13 15 rings

> <PUBCHEM_HEAVY_ATOM_COUNT>
27

> <PUBCHEM_ATOM_DEF_STEREO_COUNT>
0

> <PUBCHEM_ATOM_UDEF_STEREO_COUNT>
0

> <PUBCHEM_BOND_DEF_STEREO_COUNT>
0

> <PUBCHEM_BOND_UDEF_STEREO_COUNT>
0

> <PUBCHEM_ISOTOPIC_ATOM_COUNT>
0

> <PUBCHEM_COMPONENT_COUNT>
1

> <PUBCHEM_CACTVS_TAUTO_COUNT>
83

> <PUBCHEM_CONFORMER_ID>
036BE6C000000001

> <PUBCHEM_MMFF94_ENERGY>
59.6631

> <PUBCHEM_FEATURE_SELFOVERLAP>
60.996

> <PUBCHEM_SHAPE_FINGERPRINT>
10 15 11024108745917158699
10066227 112 15213024847115304556
10554248 39 17095527254074193478
10670039 82 16225760792750824125
10693767 8 18188766142318164586
10763959 59 16443072707375967460
10835480 77 16878238558100346636
11135926 11 18341892949291011931
11386260 185 17385735695036553404
11761917 87 13829591782650868404
11963148 33 18342452604493568382
12082328 90 17167584873997554315
12166972 35 18410014359614344457
13668630 136 18272370866834919279
13782708 43 17489869293834948648
14211702 104 17703800179897446951
14849402 71 11671194458947297978
14904525 67 12036027827481101942
15183329 4 17676203559036892987
15461852 350 18271812311440111028
15716309 27 15841548574574224969
16994733 274 11747228986853270526
17093844 174 15554446263541447673
17686467 74 17775278370743062200
17780758 139 12463568496409771255
18643901 69 18410291442046987943
18681886 176 18411412934051217248
190975 80 14117506653871392044
19377110 9 11527951132162643886
20028762 73 18342459227469762278
2026 5 18202281399191908039
20281389 69 12685092588019213781
21054139 6 18411136926668367219
21150785 3 18410862075016348156
21521239 73 18261391182369398610
21521721 280 12175608582791086110
21623969 137 13470687040368716892
22288116 15 17894634777390818035
23081809 10 18335712598383489208
23522609 53 18047505303465803380
23569943 247 17554909676354514102
23576562 1 16588882306888624942
2838139 119 16370727002494308125
312425 54 13254804559858578549
3178227 256 13038898937490005666
3383291 50 17561081436430549431
3418910 222 16845578638807613200
3663271 9 11671780468510909885
3711267 37 8358246086739912094
397830 11 16845275164696428122
4015057 19 18260558856600276697
4340502 62 15195284197485188916
5104073 3 12319443399037313645
54039377 194 18341615962592217871
58083652 198 13829834817390548835
6328613 192 16008757909111584516
7226269 152 12396297041742770309
9953998 17 12967131614569471771
999808 66 16917349238502836471

> <PUBCHEM_SHAPE_MULTIPOLES>
519
23.96
2
1.66
1.5
0.79
0.44
14.63
9.67
-3
0.19
-0.18
-0.13
-1.47

> <PUBCHEM_SHAPE_SELFOVERLAP>
1148.142

> <PUBCHEM_SHAPE_VOLUME>
280.4

> <PUBCHEM_COORDINATE_TYPE>
2
5
10

$$$$
57392627
  -OEChem-05102415093D

 45 48  0     0  0  0  0  0  0999 V2000
   -2.0184    0.0381   -2.0380 O   0  0  0  0  0  0  0  0  0  0  0  0
   -6.6681    2.2604   -0.4952 O   0  0  0  0  0  0  0  0  0  0  0  0
    0.6771    0.0635   -1.1225 N   0  0  0  0  0  0  0  0  0  0  0  0
   -2.5645   -1.6676   -0.5652 N   0  0  0  0  0  0  0  0  0  0  0  0
    3.9125   -1.1239    1.1067 N   0  0  0  0  0  0  0  0  0  0  0  0
    8.0467    1.4088    0.0836 N   0  0  0  0  0  0  0  0  0  0  0  0
    1.8641   -0.1939   -0.4750 C   0  0  0  0  0  0  0  0  0  0  0  0
    1.6226   -1.2280    0.4307 C   0  0  0  0  0  0  0  0  0  0  0  0
   -0.3042   -0.7707   -0.6575 C   0  0  0  0  0  0  0  0  0  0  0  0
    0.2510   -1.5824    0.3050 C   0  0  0  0  0  0  0  0  0  0  0  0
    3.1158    0.3980   -0.6163 C   0  0  0  0  0  0  0  0  0  0  0  0
    4.0954   -0.1240    0.2139 C   0  0  0  0  0  0  0  0  0  0  0  0
   -1.6520   -0.7516   -1.1313 C   0  0  0  0  0  0  0  0  0  0  0  0
   -3.9518   -1.7861   -0.9527 C   0  0  0  0  0  0  0  0  0  0  0  0
    2.6827   -1.6807    1.2223 C   0  0  0  0  0  0  0  0  0  0  0  0
   -4.8406   -0.8891   -0.1407 C   0  0  0  0  0  0  0  0  0  0  0  0
    5.4417    0.3988    0.1694 C   0  0  0  0  0  0  0  0  0  0  0  0
   -5.3484    0.2827   -0.7018 C   0  0  0  0  0  0  0  0  0  0  0  0
   -5.1581   -1.2268    1.1750 C   0  0  0  0  0  0  0  0  0  0  0  0
   -6.1738    1.1167    0.0526 C   0  0  0  0  0  0  0  0  0  0  0  0
    5.6802    1.7393    0.4516 C   0  0  0  0  0  0  0  0  0  0  0  0
    6.5041   -0.4373   -0.1556 C   0  0  0  0  0  0  0  0  0  0  0  0
   -5.9832   -0.3928    1.9295 C   0  0  0  0  0  0  0  0  0  0  0  0
   -6.4913    0.7788    1.3682 C   0  0  0  0  0  0  0  0  0  0  0  0
    6.9890    2.1909    0.3956 C   0  0  0  0  0  0  0  0  0  0  0  0
    7.7760    0.1116   -0.1844 C   0  0  0  0  0  0  0  0  0  0  0  0
   -7.5046    3.0676    0.3324 C   0  0  0  0  0  0  0  0  0  0  0  0
    0.5513    0.7674   -1.8370 H   0  0  0  0  0  0  0  0  0  0  0  0
   -0.2519   -2.3542    0.8717 H   0  0  0  0  0  0  0  0  0  0  0  0
    3.2940    1.1971   -1.3258 H   0  0  0  0  0  0  0  0  0  0  0  0
   -4.2479   -2.8322   -0.8144 H   0  0  0  0  0  0  0  0  0  0  0  0
   -4.0446   -1.5656   -2.0223 H   0  0  0  0  0  0  0  0  0  0  0  0
    2.5826   -2.4776    1.9496 H   0  0  0  0  0  0  0  0  0  0  0  0
   -2.2496   -2.2894    0.1720 H   0  0  0  0  0  0  0  0  0  0  0  0
   -5.1043    0.5541   -1.7259 H   0  0  0  0  0  0  0  0  0  0  0  0
   -4.7681   -2.1371    1.6228 H   0  0  0  0  0  0  0  0  0  0  0  0
    4.8814    2.4252    0.7150 H   0  0  0  0  0  0  0  0  0  0  0  0
    6.3605   -1.4882   -0.3858 H   0  0  0  0  0  0  0  0  0  0  0  0
   -6.2296   -0.6567    2.9540 H   0  0  0  0  0  0  0  0  0  0  0  0
   -7.1257    1.3805    2.0100 H   0  0  0  0  0  0  0  0  0  0  0  0
    7.2284    3.2276    0.6084 H   0  0  0  0  0  0  0  0  0  0  0  0
    8.6385   -0.4980   -0.4331 H   0  0  0  0  0  0  0  0  0  0  0  0
   -7.8073    3.9354   -0.2627 H   0  0  0  0  0  0  0  0  0  0  0  0
   -6.9606    3.4506    1.2024 H   0  0  0  0  0  0  0  0  0  0  0  0
   -8.4210    2.5388    0.6156 H   0  0  0  0  0  0  0  0  0  0  0  0
  1 13  2  0  0  0  0
  2 20  1  0  0  0  0
  2 27  1  0  0  0  0
  3  7  1  0  0  0  0
  3  9  1  0  0  0  0
  3 28  1  0  0  0  0
  4 13  1  0  0  0  0
  4 14  1  0  0  0  0
  4 34  1  0  0  0  0
  5 12  2  0  0  0  0
  5 15  1  0  0  0  0
  6 25  2  0  0  0  0
  6 26  1  0  0  0  0
  7  8  1  0  0  0  0
  7 11  2  0  0  0  0
  8 10  1  0  0  0  0
  8 15  2  0  0  0  0
  9 10  2  0  0  0  0
  9 13  1  0  0  0  0
 10 29  1  0  0  0  0
 11 12  1  0  0  0  0
 11 30  1  0  0  0  0
 12 17  1  0  0  0  0
 14 16  1  0  0  0  0
 14 31  1  0  0  0  0
 14 32  1  0  0  0  0
 15 33  1  0  0  0  0
 16 18  2  0  0  0  0
 16 19  1  0  0  0  0
 17 21  2  0  0  0  0
 17 22  1  0  0  0  0
 18 20  1  0  0  0  0
 18 35  1  0  0  0  0
 19 23  2  0  0  0  0
 19 36  1  0  0  0  0
 20 24  2  0  0  0  0
 21 25  1  0  0  0  0
 21 37  1  0  0  0  0
 22 26  2  0  0  0  0
 22 38  1  0  0  0  0
 23 24  1  0  0  0  0
 23 39  1  0  0  0  0
 24 40  1  0  0  0  0
 25 41  1  0  0  0  0
 26 42  1  0  0  0  0
 27 43  1  0  0  0  0
 27 44  1  0  0  0  0
 27 45  1  0  0  0  0
M  END
> <PUBCHEM_COMPOUND_CID>
57392627

> <PUBCHEM_CONFORMER_RMSD>
0.8

> <PUBCHEM_CONFORMER_DIVERSEORDER>
1
32
48
58
38
49
44
22
67
46
25
24
29
16
2
64
57
66
73
18
71
17
40
72
8
5
77
60
34
59
41
63
56
10
31
36
7
9
19
54
42
11
20
15
68
39
21
70
69
55
52
76
35
14
45
3
28
51
50
12
37
74
6
27
75
4
33
13
47
53
23
62
26
30
65
43
61

> <PUBCHEM_MMFF94_PARTIAL_CHARGES>
38
1 -0.57
10 -0.15
11 -0.15
12 0.31
13 0.71
14 0.44
15 0.16
16 -0.14
18 -0.15
19 -0.15
2 -0.36
20 0.08
21 -0.15
22 -0.15
23 -0.15
24 -0.15
25 0.16
26 0.16
27 0.28
28 0.27
29 0.15
3 0.03
30 0.15
33 0.15
34 0.37
35 0.15
36 0.15
37 0.15
38 0.15
39 0.15
4 -0.73
40 0.15
41 0.15
42 0.15
5 -0.62
6 -0.62
7 -0.15
9 -0.24

> <PUBCHEM_EFFECTIVE_ROTOR_COUNT>
6

> <PUBCHEM_PHARMACOPHORE_FEATURES>
11
1 1 acceptor
1 2 acceptor
1 3 cation
1 3 donor
1 4 donor
1 5 acceptor
1 6 acceptor
5 3 7 8 9 10 rings
6 16 18 19 20 23 24 rings
6 5 7 8 11 12 15 rings
6 6 17 21 22 25 26 rings

> <PUBCHEM_HEAVY_ATOM_COUNT>
27

> <PUBCHEM_ATOM_DEF_STEREO_COUNT>
0

> <PUBCHEM_ATOM_UDEF_STEREO_COUNT>
0

> <PUBCHEM_BOND_DEF_STEREO_COUNT>
0

> <PUBCHEM_BOND_UDEF_STEREO_COUNT>
0

> <PUBCHEM_ISOTOPIC_ATOM_COUNT>
0

> <PUBCHEM_COMPONENT_COUNT>
1

> <PUBCHEM_CACTVS_TAUTO_COUNT>
11

> <PUBCHEM_CONFORMER_ID>
036BBDF300000001

> <PUBCHEM_MMFF94_ENERGY>
74.6964

> <PUBCHEM_FEATURE_SELFOVERLAP>
55.921

> <PUBCHEM_SHAPE_FINGERPRINT>
10 15 18260829285126050145
10066227 112 18060136544046191960
10100884 174 17243589877952313179
10554248 39 16630249125913299788
10577160 183 15267060298838860974
10670039 82 15913331269509915363
11089746 13 14333126373078280566
11135609 99 7997678805914513816
11181472 205 17489322867238036576
11200772 48 13686294690844027221
11315181 36 18260543442779633495
11456790 92 18261384573475501448
11646440 116 17894910763467772972
12166972 35 10881400933121112670
12236239 1 18343580776505934910
125118 31 18410294731385580300
12539765 74 18339370751448113614
12730499 353 18040429993844050058
12895837 130 17988358158461444181
13782708 43 12035716631292791390
14347424 109 18116427051200656059
14765038 42 17967532367831053075
14849402 71 17896326998568704156
14933364 13 18413107286260283630
15142383 8 16917350338541958514
15183329 4 14045744811423728982
15461852 350 17774996921709812607
1577012 14 18412820283207443499
16994733 274 18270956955644346064
17780758 139 17095244718572395891
18603816 31 12973902424939203465
2026 5 9295290538931802177
21033648 29 18191296290740978000
21054139 6 10159697997364661093
21130935 74 18259700112449704922
21521721 280 18114742741948433690
21781051 124 16225770701741783034
21781055 127 18187367645780481200
22224240 67 17822007639981182322
22288116 15 14907891700722985149
2260408 40 17895198761819525582
23389318 12 10447922893850123490
23522609 53 17532394086886219468
23576562 1 14979095025280558832
24771293 8 18189329255722721868
2838139 119 15913611666291695979
312425 54 17095528362238637891
3178227 256 17167582713512933644
3663271 9 18040996237409367435
3711267 37 18340496655291921632
393628 194 17703518701639164993
4015057 19 10951759828659302455
4093350 32 18409449155494053002
4169191 19 17703796903063928143
4340502 62 15647043872905228410
437795 150 13326269513135849133
439807 62 8934707912963715065
4938544 92 18408603674154478983
504843 32 17418089953807340679
5104073 3 17168970206734495536
5385378 56 17967245378633286170
54039377 194 8790592720508703761
5718773 13 8430310247312408141
5758199 1 18040714788213016082
59755656 215 13973975302828779358
6328613 192 18202001044646922225
7226269 152 18131072628161218947
9689198 14 18410859862738750082
9953998 17 17530965774606991293
999808 66 11530483333385523241

> <PUBCHEM_SHAPE_MULTIPOLES>
523.98
25.09
2.23
1.32
6
1.37
0.1
17.17
5.09
-2.4
0.23
-1.71
-0.28
-0.15

> <PUBCHEM_SHAPE_SELFOVERLAP>
1159.722

> <PUBCHEM_SHAPE_VOLUME>
279.8

> <PUBCHEM_COORDINATE_TYPE>
2
5
10

$$$$
52936149
  -OEChem-05102415093D

 46 49  0     0  0  0  0  0  0999 V2000
    1.7823    0.6625    1.8205 O   0  0  0  0  0  0  0  0  0  0  0  0
    6.4613    2.3748   -0.2080 O   0  0  0  0  0  0  0  0  0  0  0  0
   -0.8656    0.2816    0.8460 N   0  0  0  0  0  0  0  0  0  0  0  0
   -3.1873    0.4065    0.2158 N   0  0  0  0  0  0  0  0  0  0  0  0
    2.4307   -1.4262    1.0496 N   0  0  0  0  0  0  0  0  0  0  0  0
   -7.1463    1.5879   -0.0294 N   0  0  0  0  0  0  0  0  0  0  0  0
   -7.5058    0.9775   -1.1714 N   0  0  0  0  0  0  0  0  0  0  0  0
   -1.7051   -1.5015   -0.2043 C   0  0  0  0  0  0  0  0  0  0  0  0
   -2.0029   -0.2308    0.2793 C   0  0  0  0  0  0  0  0  0  0  0  0
    0.1529   -0.6292    0.7368 C   0  0  0  0  0  0  0  0  0  0  0  0
   -0.3375   -1.7439    0.0914 C   0  0  0  0  0  0  0  0  0  0  0  0
   -4.1468   -0.3249   -0.3972 C   0  0  0  0  0  0  0  0  0  0  0  0
   -2.7406   -2.2132   -0.8310 C   0  0  0  0  0  0  0  0  0  0  0  0
   -5.4286    0.3184   -0.4870 C   0  0  0  0  0  0  0  0  0  0  0  0
   -3.9885   -1.5996   -0.9243 C   0  0  0  0  0  0  0  0  0  0  0  0
    1.4753   -0.4027    1.2282 C   0  0  0  0  0  0  0  0  0  0  0  0
    3.7993   -1.3572    1.5092 C   0  0  0  0  0  0  0  0  0  0  0  0
   -5.9108    1.2276    0.4228 C   0  0  0  0  0  0  0  0  0  0  0  0
    4.7106   -0.7644    0.4736 C   0  0  0  0  0  0  0  0  0  0  0  0
   -6.4526    0.2033   -1.4460 C   0  0  0  0  0  0  0  0  0  0  0  0
    5.1690    0.5453    0.6156 C   0  0  0  0  0  0  0  0  0  0  0  0
   -5.3458    1.7934    1.6615 C   0  0  0  0  0  0  0  0  0  0  0  0
    5.0982   -1.5232   -0.6310 C   0  0  0  0  0  0  0  0  0  0  0  0
    6.0151    1.0964   -0.3467 C   0  0  0  0  0  0  0  0  0  0  0  0
    5.9441   -0.9720   -1.5935 C   0  0  0  0  0  0  0  0  0  0  0  0
    6.4028    0.3377   -1.4512 C   0  0  0  0  0  0  0  0  0  0  0  0
    7.3227    2.8760   -1.2293 C   0  0  0  0  0  0  0  0  0  0  0  0
    0.2082   -2.6451   -0.1525 H   0  0  0  0  0  0  0  0  0  0  0  0
   -0.7926    1.1927    1.2773 H   0  0  0  0  0  0  0  0  0  0  0  0
   -2.5817   -3.2096   -1.2307 H   0  0  0  0  0  0  0  0  0  0  0  0
   -4.8044   -2.1359   -1.3996 H   0  0  0  0  0  0  0  0  0  0  0  0
    3.8355   -0.7793    2.4398 H   0  0  0  0  0  0  0  0  0  0  0  0
    4.1207   -2.3764    1.7523 H   0  0  0  0  0  0  0  0  0  0  0  0
    2.1638   -2.2739    0.5603 H   0  0  0  0  0  0  0  0  0  0  0  0
   -6.4825   -0.4073   -2.3377 H   0  0  0  0  0  0  0  0  0  0  0  0
   -7.7969    2.2419    0.3878 H   0  0  0  0  0  0  0  0  0  0  0  0
    4.8701    1.1438    1.4727 H   0  0  0  0  0  0  0  0  0  0  0  0
   -4.5454    2.5043    1.4332 H   0  0  0  0  0  0  0  0  0  0  0  0
   -6.1062    2.3274    2.2417 H   0  0  0  0  0  0  0  0  0  0  0  0
   -4.9414    1.0058    2.3055 H   0  0  0  0  0  0  0  0  0  0  0  0
    4.7472   -2.5446   -0.7524 H   0  0  0  0  0  0  0  0  0  0  0  0
    6.2452   -1.5635   -2.4533 H   0  0  0  0  0  0  0  0  0  0  0  0
    7.0570    0.7031   -2.2354 H   0  0  0  0  0  0  0  0  0  0  0  0
    7.5801    3.9052   -0.9586 H   0  0  0  0  0  0  0  0  0  0  0  0
    6.8151    2.9179   -2.1990 H   0  0  0  0  0  0  0  0  0  0  0  0
    8.2613    2.3134   -1.2759 H   0  0  0  0  0  0  0  0  0  0  0  0
  1 16  2  0  0  0  0
  2 24  1  0  0  0  0
  2 27  1  0  0  0  0
  3  9  1  0  0  0  0
  3 10  1  0  0  0  0
  3 29  1  0  0  0  0
  4  9  1  0  0  0  0
  4 12  2  0  0  0  0
  5 16  1  0  0  0  0
  5 17  1  0  0  0  0
  5 34  1  0  0  0  0
  6  7  1  0  0  0  0
  6 18  1  0  0  0  0
  6 36  1  0  0  0  0
  7 20  2  0  0  0  0
  8  9  2  0  0  0  0
  8 11  1  0  0  0  0
  8 13  1  0  0  0  0
 10 11  2  0  0  0  0
 10 16  1  0  0  0  0
 11 28  1  0  0  0  0
 12 14  1  0  0  0  0
 12 15  1  0  0  0  0
 13 15  2  0  0  0  0
 13 30  1  0  0  0  0
 14 18  2  0  0  0  0
 14 20  1  0  0  0  0
 15 31  1  0  0  0  0
 17 19  1  0  0  0  0
 17 32  1  0  0  0  0
 17 33  1  0  0  0  0
 18 22  1  0  0  0  0
 19 21  2  0  0  0  0
 19 23  1  0  0  0  0
 20 35  1  0  0  0  0
 21 24  1  0  0  0  0
 21 37  1  0  0  0  0
 22 38  1  0  0  0  0
 22 39  1  0  0  0  0
 22 40  1  0  0  0  0
 23 25  2  0  0  0  0
 23 41  1  0  0  0  0
 24 26  2  0  0  0  0
 25 26  1  0  0  0  0
 25 42  1  0  0  0  0
 26 43  1  0  0  0  0
 27 44  1  0  0  0  0
 27 45  1  0  0  0  0
 27 46  1  0  0  0  0
M  END
> <PUBCHEM_COMPOUND_CID>
52936149

> <PUBCHEM_CONFORMER_RMSD>
0.8

> <PUBCHEM_CONFORMER_DIVERSEORDER>
1
88
72
199
67
176
152
48
130
61
5
159
103
183
28
94
198
73
180
126
193
140
11
150
155
57
156
184
97
52
174
87
19
135
192
21
128
14
191
77
179
70
107
59
45
102
185
127
55
117
177
23
8
144
22
181
80
42
37
81
194
153
136
104
160
26
60
201
49
100
208
46
99
138
20
41
133
137
7
50
188
203
141
56
120
17
69
68
186
62
12
85
196
165
64
170
92
54
167
154
209
169
175
66
84
134
29
131
105
6
187
79
129
36
166
146
39
89
51
172
205
108
182
207
143
16
53
171
149
2
32
40
63
206
10
121
164
33
118
139
83
112
98
71
162
25
86
114
161
78
65
4
34
24
132
168
202
204
18
9
106
43
91
15
44
115
163
157
119
58
93
109
116
27
110
30
173
74
148
38
90
195
76
113
122
147
3
111
197
75
145
31
200
151
82
13
35
95
178
125
190
158
96
124
189
142
123
47
101

> <PUBCHEM_MMFF94_PARTIAL_CHARGES>
37
1 -0.57
10 -0.24
11 -0.15
12 0.36
13 -0.15
14 -0.05
15 -0.15
16 0.71
17 0.44
18 -0.33
19 -0.14
2 -0.36
20 0.14
21 -0.15
22 0.18
23 -0.15
24 0.08
25 -0.15
26 -0.15
27 0.28
28 0.15
29 0.27
3 0.03
30 0.15
31 0.15
34 0.37
35 0.15
36 0.27
37 0.15
4 -0.57
41 0.15
42 0.15
43 0.15
5 -0.73
6 0.3
7 -0.71
9 0.11

> <PUBCHEM_EFFECTIVE_ROTOR_COUNT>
6

> <PUBCHEM_PHARMACOPHORE_FEATURES>
12
1 1 acceptor
1 2 acceptor
1 3 cation
1 3 donor
1 4 acceptor
1 5 donor
1 6 donor
1 7 acceptor
5 3 8 9 10 11 rings
5 6 7 14 18 20 rings
6 19 21 23 24 25 26 rings
6 4 8 9 12 13 15 rings

> <PUBCHEM_HEAVY_ATOM_COUNT>
27

> <PUBCHEM_ATOM_DEF_STEREO_COUNT>
0

> <PUBCHEM_ATOM_UDEF_STEREO_COUNT>
0

> <PUBCHEM_BOND_DEF_STEREO_COUNT>
0

> <PUBCHEM_BOND_UDEF_STEREO_COUNT>
0

> <PUBCHEM_ISOTOPIC_ATOM_COUNT>
0

> <PUBCHEM_COMPONENT_COUNT>
1

> <PUBCHEM_CACTVS_TAUTO_COUNT>
143

> <PUBCHEM_CONFORMER_ID>
0327BDD500000001

> <PUBCHEM_MMFF94_ENERGY>
59.9086

> <PUBCHEM_FEATURE_SELFOVERLAP>
61.01

> <PUBCHEM_SHAPE_FINGERPRINT>
10 15 13623536757415881870
10066227 112 18409727370004516405
10533779 47 14779534657657460888
10554248 39 18193255439176905767
10638233 991 18335421240228068441
10835480 77 18059289972255131936
10906281 52 18272658909381485203
10951579 204 17274827883264005960
11007060 377 17895195537000563691
11135609 127 18200584909101197488
11408170 253 18200600189899433929
11646440 116 16008746918643526774
11719270 70 8935000390897753545
12166972 35 12247671695187341491
12236239 1 18261106370356443315
125118 31 16515961463289565645
12670543 26 17489586740531582163
13668630 136 13830128399521110261
13690498 29 17772185568608527927
13782708 43 13254788036723680003
13914758 101 13254802322138782779
13955234 65 16661190448508430082
14211702 104 10663812018231635164
14251757 52 18186799166779784996
14428016 167 11023566670259930476
14461889 52 14924235910187414032
14840074 17 18186803560736765271
14931854 50 17560788881049624665
15183329 4 18060702770975218760
15188451 53 10231757777683328222
15276724 80 18262234426305285476
15475509 35 9727364498575960380
15475509 8 17917436380079984560
15575132 122 18189049816043505645
15840311 113 18113338587372578415
16994733 274 17603862308374481817
18222031 100 14764631924029608242
19377110 9 11530482229040604593
1979834 28 14996280297966102522
20028762 73 10375877376954900092
2026 5 12895349993766523277
20397935 70 10807934869356711180
21033648 29 16588595313891411714
21095123 293 18337394813057863993
21150785 3 18411695500545713063
21298829 104 18114747148379840044
21585481 151 8429504314570967936
21792934 111 11097844173926148807
22061861 79 15051728685727067603
22149856 69 13552037612648689285
2215653 11 16989122058734108642
22864921 47 11097865128776538241
23081809 10 18260536827681171755
23198884 109 17918273139215984465
23522609 53 18130241345488680513
23559900 14 17560227132753038571
23576562 1 18339917242812556445
24771293 8 17458908270816007972
27425 322 18261675960915094166
3004659 81 18202000985435751882
3383291 50 11239993469086315005
3472631 163 18408606989594847142
34797466 226 18410294688166421030
3504750 166 8646502794812934395
394071 54 17894915152819010564
397830 11 16443361878917819417
406291 66 10663828464067658516
4340502 62 13984661430226407114
4403749 210 17022904567268652267
44317340 157 17967535658145078170
445580 126 18041271141650623792
445580 37 17846499202077515489
474113 269 9871473080438155545
5104073 3 12685633491836627757
543368 44 18186800326410217126
5718773 13 11743849057902491980
59682541 52 17489590052505028062
59755656 215 17418090975560909687
6328613 192 18411700993371158185
6898599 12 18268431415831937974
960060 61 17561367301380170250
9689198 14 18113624473496933767
9953998 17 14056722344638239361
9980921 221 16916520163580781289

> <PUBCHEM_SHAPE_MULTIPOLES>
519
23.04
2.28
1.53
1.83
0.69
0.1
14.57
-9.38
1.87
-0.36
0.63
0.12
-1.95

> <PUBCHEM_SHAPE_SELFOVERLAP>
1148.403

> <PUBCHEM_SHAPE_VOLUME>
279.6

> <PUBCHEM_COORDINATE_TYPE>
2
5
10

$$$$
52936150
  -OEChem-05102415093D

 45 48  0     0  0  0  0  0  0999 V2000
    1.8980    0.1667    1.9816 O   0  0  0  0  0  0  0  0  0  0  0  0
    6.5337    2.3801    0.3847 O   0  0  0  0  0  0  0  0  0  0  0  0
   -0.7664    0.0337    0.9885 N   0  0  0  0  0  0  0  0  0  0  0  0
    2.5365   -1.6456    0.6837 N   0  0  0  0  0  0  0  0  0  0  0  0
   -3.0996    0.3031    0.4531 N   0  0  0  0  0  0  0  0  0  0  0  0
   -7.8407    1.6595    0.0272 N   0  0  0  0  0  0  0  0  0  0  0  0
   -1.6225   -1.4212   -0.4736 C   0  0  0  0  0  0  0  0  0  0  0  0
   -1.9133   -0.3213    0.3283 C   0  0  0  0  0  0  0  0  0  0  0  0
    0.2513   -0.8111    0.6288 C   0  0  0  0  0  0  0  0  0  0  0  0
   -0.2493   -1.7233   -0.2750 C   0  0  0  0  0  0  0  0  0  0  0  0
   -2.6684   -1.9525   -1.2453 C   0  0  0  0  0  0  0  0  0  0  0  0
    3.9134   -1.6884    1.1212 C   0  0  0  0  0  0  0  0  0  0  0  0
   -4.0692   -0.2503   -0.3117 C   0  0  0  0  0  0  0  0  0  0  0  0
    1.5822   -0.7104    1.1386 C   0  0  0  0  0  0  0  0  0  0  0  0
   -3.9188   -1.3436   -1.1541 C   0  0  0  0  0  0  0  0  0  0  0  0
    4.8035   -0.8409    0.2590 C   0  0  0  0  0  0  0  0  0  0  0  0
   -5.3551    0.4002   -0.1961 C   0  0  0  0  0  0  0  0  0  0  0  0
    5.2615    0.3904    0.7280 C   0  0  0  0  0  0  0  0  0  0  0  0
    5.1719   -1.2842   -1.0114 C   0  0  0  0  0  0  0  0  0  0  0  0
    6.0880    1.1784   -0.0731 C   0  0  0  0  0  0  0  0  0  0  0  0
    5.9982   -0.4960   -1.8126 C   0  0  0  0  0  0  0  0  0  0  0  0
   -6.4619   -0.3139    0.2495 C   0  0  0  0  0  0  0  0  0  0  0  0
   -5.4897    1.7433   -0.5301 C   0  0  0  0  0  0  0  0  0  0  0  0
    6.4564    0.7351   -1.3434 C   0  0  0  0  0  0  0  0  0  0  0  0
   -7.6713    0.3559    0.3426 C   0  0  0  0  0  0  0  0  0  0  0  0
   -6.7427    2.3211   -0.4020 C   0  0  0  0  0  0  0  0  0  0  0  0
    7.3744    3.1354   -0.4864 C   0  0  0  0  0  0  0  0  0  0  0  0
    0.2933   -2.5268   -0.7540 H   0  0  0  0  0  0  0  0  0  0  0  0
   -0.6866    0.8024    1.6399 H   0  0  0  0  0  0  0  0  0  0  0  0
   -2.5149   -2.8084   -1.8945 H   0  0  0  0  0  0  0  0  0  0  0  0
    4.2417   -2.7334    1.0858 H   0  0  0  0  0  0  0  0  0  0  0  0
    3.9658   -1.3715    2.1691 H   0  0  0  0  0  0  0  0  0  0  0  0
   -4.7441   -1.7310   -1.7445 H   0  0  0  0  0  0  0  0  0  0  0  0
    2.2624   -2.3392   -0.0041 H   0  0  0  0  0  0  0  0  0  0  0  0
    4.9774    0.7439    1.7162 H   0  0  0  0  0  0  0  0  0  0  0  0
    4.8210   -2.2415   -1.3875 H   0  0  0  0  0  0  0  0  0  0  0  0
    6.2843   -0.8420   -2.8016 H   0  0  0  0  0  0  0  0  0  0  0  0
   -6.4004   -1.3617    0.5260 H   0  0  0  0  0  0  0  0  0  0  0  0
   -4.6521    2.3353   -0.8851 H   0  0  0  0  0  0  0  0  0  0  0  0
    7.0949    1.2961   -2.0172 H   0  0  0  0  0  0  0  0  0  0  0  0
   -8.5644   -0.1556    0.6862 H   0  0  0  0  0  0  0  0  0  0  0  0
   -6.9007    3.3654   -0.6505 H   0  0  0  0  0  0  0  0  0  0  0  0
    8.3133    2.6109   -0.6940 H   0  0  0  0  0  0  0  0  0  0  0  0
    6.8486    3.4238   -1.4029 H   0  0  0  0  0  0  0  0  0  0  0  0
    7.6345    4.0609    0.0376 H   0  0  0  0  0  0  0  0  0  0  0  0
  1 14  2  0  0  0  0
  2 20  1  0  0  0  0
  2 27  1  0  0  0  0
  3  8  1  0  0  0  0
  3  9  1  0  0  0  0
  3 29  1  0  0  0  0
  4 12  1  0  0  0  0
  4 14  1  0  0  0  0
  4 34  1  0  0  0  0
  5  8  1  0  0  0  0
  5 13  2  0  0  0  0
  6 25  2  0  0  0  0
  6 26  1  0  0  0  0
  7  8  2  0  0  0  0
  7 10  1  0  0  0  0
  7 11  1  0  0  0  0
  9 10  2  0  0  0  0
  9 14  1  0  0  0  0
 10 28  1  0  0  0  0
 11 15  2  0  0  0  0
 11 30  1  0  0  0  0
 12 16  1  0  0  0  0
 12 31  1  0  0  0  0
 12 32  1  0  0  0  0
 13 15  1  0  0  0  0
 13 17  1  0  0  0  0
 15 33  1  0  0  0  0
 16 18  2  0  0  0  0
 16 19  1  0  0  0  0
 17 22  2  0  0  0  0
 17 23  1  0  0  0  0
 18 20  1  0  0  0  0
 18 35  1  0  0  0  0
 19 21  2  0  0  0  0
 19 36  1  0  0  0  0
 20 24  2  0  0  0  0
 21 24  1  0  0  0  0
 21 37  1  0  0  0  0
 22 25  1  0  0  0  0
 22 38  1  0  0  0  0
 23 26  2  0  0  0  0
 23 39  1  0  0  0  0
 24 40  1  0  0  0  0
 25 41  1  0  0  0  0
 26 42  1  0  0  0  0
 27 43  1  0  0  0  0
 27 44  1  0  0  0  0
 27 45  1  0  0  0  0
M  END
> <PUBCHEM_COMPOUND_CID>
52936150

> <PUBCHEM_CONFORMER_RMSD>
0.8

> <PUBCHEM_CONFORMER_DIVERSEORDER>
1
7
61
39
74
70
83
49
26
78
20
37
11
30
86
54
52
16
18
62
53
57
10
44
85
19
46
64
31
3
80
35
25
48
79
4
40
76
43
73
68
36
45
34
47
55
17
8
15
24
71
82
58
13
28
65
22
59
81
27
60
29
84
6
5
72
63
67
14
32
2
77
23
51
50
69
33
9
21
56
12
75
66
42
41
38

> <PUBCHEM_MMFF94_PARTIAL_CHARGES>
38
1 -0.57
10 -0.15
11 -0.15
12 0.44
13 0.31
14 0.71
15 -0.15
16 -0.14
18 -0.15
19 -0.15
2 -0.36
20 0.08
21 -0.15
22 -0.15
23 -0.15
24 -0.15
25 0.16
26 0.16
27 0.28
28 0.15
29 0.27
3 0.03
30 0.15
33 0.15
34 0.37
35 0.15
36 0.15
37 0.15
38 0.15
39 0.15
4 -0.73
40 0.15
41 0.15
42 0.15
5 -0.57
6 -0.62
8 0.11
9 -0.24

> <PUBCHEM_EFFECTIVE_ROTOR_COUNT>
6

> <PUBCHEM_PHARMACOPHORE_FEATURES>
11
1 1 acceptor
1 2 acceptor
1 3 cation
1 3 donor
1 4 donor
1 5 acceptor
1 6 acceptor
5 3 7 8 9 10 rings
6 16 18 19 20 21 24 rings
6 5 7 8 11 13 15 rings
6 6 17 22 23 25 26 rings

> <PUBCHEM_HEAVY_ATOM_COUNT>
27

> <PUBCHEM_ATOM_DEF_STEREO_COUNT>
0

> <PUBCHEM_ATOM_UDEF_STEREO_COUNT>
0

> <PUBCHEM_BOND_DEF_STEREO_COUNT>
0

> <PUBCHEM_BOND_UDEF_STEREO_COUNT>
0

> <PUBCHEM_ISOTOPIC_ATOM_COUNT>
0

> <PUBCHEM_COMPONENT_COUNT>
1

> <PUBCHEM_CACTVS_TAUTO_COUNT>
15

> <PUBCHEM_CONFORMER_ID>
0327BDD600000001

> <PUBCHEM_MMFF94_ENERGY>
74.9658

> <PUBCHEM_FEATURE_SELFOVERLAP>
55.935

> <PUBCHEM_SHAPE_FINGERPRINT>
10 15 13479141198175237158
10066227 112 18344142596745631929
10316853 100 10592046869355908628
10554248 39 18195226846414145879
10673678 19 18410300224453241742
10816530 90 18271235106300967720
10906281 52 17917720063361215395
11135609 127 18059565937163302600
11211813 74 18409728448142015253
11408170 253 18130794391411827169
11578821 258 17821728296253029757
11646440 116 15936407836606940182
11991303 11 17346589799084296079
12120059 9 12468355778622152049
12236239 1 18334010562809985627
12539765 74 18271249318289701639
13668630 136 12103843458223667493
13782708 43 12031775964486478331
13955234 65 17023731305101739474
14211702 104 10015576250647209156
14251757 52 18407759226879092032
14461889 52 16226056595099942779
14565420 104 17530962467176388026
14849402 71 17458357359408328765
14933364 13 18335702719873831475
15183329 4 17346602966957924971
15188451 53 9511463316528234646
15276724 80 18335134241881334349
15461852 350 18131059434744391965
1577012 14 18410568504789369694
15840311 113 18260551095377321909
16994733 274 17676486112589075601
17686467 74 17822294609486803349
18222031 100 13830135005655831506
19053607 189 17837482322257685936
19377110 9 15285352903807396315
1979834 28 14707207687206667354
20028762 73 9871754598438879132
2026 5 10159693595693868621
20281389 69 18187080616234280405
20771845 65 18044924685894112594
21130935 74 17168143391318393363
21298829 104 18262237828515612660
21304304 249 9871755702292778264
21307412 95 14907904924378436196
21424621 283 18259704492861983627
21792934 111 12468350246440601463
21987483 16 11747810645410458637
22149856 69 14201963338173725597
2215653 11 16200430269233871838
22224240 67 16081090364309149619
23081809 10 18335125488954379475
23559900 14 16916774236438913027
23576562 1 18129369553707472037
24771293 8 18042120020208764436
25269216 80 17774153647309086119
29717793 49 14405178478274481810
3004659 81 17988926635768665702
3014063 24 10807938163111421504
3472631 163 18411703214412439454
34797466 226 18343588430147952734
3711267 37 18411146801294663521
393628 194 17826516854006989836
4073 2 18113901584866786283
4340502 62 15285358401365756666
44317340 157 18409730651829029094
445580 167 18336258020712155431
445580 37 17845938433993925889
474113 269 9223235118178182321
5265222 85 18342457088555105783
54076057 255 18412821386982397352
5718773 13 10159704594571467072
5758199 1 17385727976405568667
59682541 52 16917069928253082854
59755656 215 17203608134350363311
6328613 192 18342457041099027305
6898599 12 18200590427226987430
9689198 14 18408046203924959159
9962374 69 10663811967630433184
9980921 221 16414931750834794009

> <PUBCHEM_SHAPE_MULTIPOLES>
523.98
24.44
2.42
1.31
3.62
1.49
0.06
17.85
4.59
-1.94
0.4
-1.54
-0.32
-0.54

> <PUBCHEM_SHAPE_SELFOVERLAP>
1160.105

> <PUBCHEM_SHAPE_VOLUME>
279

> <PUBCHEM_COORDINATE_TYPE>
2
5
10

$$$$
52935716
  -OEChem-05102415093D

 46 49  0     0  0  0  0  0  0999 V2000
    1.4652   -0.0196   -1.6301 O   0  0  0  0  0  0  0  0  0  0  0  0
    5.9200   -2.7016   -0.2515 O   0  0  0  0  0  0  0  0  0  0  0  0
   -1.3131    2.4788    0.9756 N   0  0  0  0  0  0  0  0  0  0  0  0
    2.5017    1.8170   -0.6659 N   0  0  0  0  0  0  0  0  0  0  0  0
   -7.8093   -1.3667    0.3558 N   0  0  0  0  0  0  0  0  0  0  0  0
   -1.1038    0.6786   -0.3252 C   0  0  0  0  0  0  0  0  0  0  0  0
   -2.0036    1.4076    0.4552 C   0  0  0  0  0  0  0  0  0  0  0  0
    0.1491    1.3497   -0.2549 C   0  0  0  0  0  0  0  0  0  0  0  0
   -3.3423    1.0320    0.6139 C   0  0  0  0  0  0  0  0  0  0  0  0
   -3.7723   -0.1231   -0.0453 C   0  0  0  0  0  0  0  0  0  0  0  0
   -0.0113    2.4523    0.5523 C   0  0  0  0  0  0  0  0  0  0  0  0
   -1.5600   -0.4826   -0.9803 C   0  0  0  0  0  0  0  0  0  0  0  0
   -2.8966   -0.8703   -0.8306 C   0  0  0  0  0  0  0  0  0  0  0  0
    1.3852    0.9875   -0.8882 C   0  0  0  0  0  0  0  0  0  0  0  0
    3.8058    1.5991   -1.2495 C   0  0  0  0  0  0  0  0  0  0  0  0
   -5.1497   -0.5480    0.0914 C   0  0  0  0  0  0  0  0  0  0  0  0
    4.6733    0.7354   -0.3803 C   0  0  0  0  0  0  0  0  0  0  0  0
    4.8973   -0.5977   -0.7239 C   0  0  0  0  0  0  0  0  0  0  0  0
   -5.4750   -1.8979    0.0184 C   0  0  0  0  0  0  0  0  0  0  0  0
   -6.1526    0.3931    0.2965 C   0  0  0  0  0  0  0  0  0  0  0  0
    5.2548    1.2660    0.7715 C   0  0  0  0  0  0  0  0  0  0  0  0
    5.7027   -1.4006    0.0838 C   0  0  0  0  0  0  0  0  0  0  0  0
    6.0600    0.4631    1.5794 C   0  0  0  0  0  0  0  0  0  0  0  0
    6.2842   -0.8701    1.2356 C   0  0  0  0  0  0  0  0  0  0  0  0
   -6.8075   -2.2522    0.1556 C   0  0  0  0  0  0  0  0  0  0  0  0
   -7.4548   -0.0637    0.4214 C   0  0  0  0  0  0  0  0  0  0  0  0
    6.7526   -3.4660    0.6194 C   0  0  0  0  0  0  0  0  0  0  0  0
   -3.9841    1.6245    1.2574 H   0  0  0  0  0  0  0  0  0  0  0  0
   -1.7105    3.1825    1.5824 H   0  0  0  0  0  0  0  0  0  0  0  0
    0.6638    3.2315    0.8768 H   0  0  0  0  0  0  0  0  0  0  0  0
   -0.8992   -1.0779   -1.6032 H   0  0  0  0  0  0  0  0  0  0  0  0
   -3.2151   -1.7541   -1.3780 H   0  0  0  0  0  0  0  0  0  0  0  0
    4.2752    2.5794   -1.3914 H   0  0  0  0  0  0  0  0  0  0  0  0
    3.6835    1.1558   -2.2444 H   0  0  0  0  0  0  0  0  0  0  0  0
    2.4182    2.6209   -0.0538 H   0  0  0  0  0  0  0  0  0  0  0  0
    4.4463   -1.0193   -1.6189 H   0  0  0  0  0  0  0  0  0  0  0  0
    5.0872    2.3032    1.0495 H   0  0  0  0  0  0  0  0  0  0  0  0
   -4.7410   -2.6860   -0.1094 H   0  0  0  0  0  0  0  0  0  0  0  0
   -5.9739    1.4620    0.3340 H   0  0  0  0  0  0  0  0  0  0  0  0
    6.5120    0.8771    2.4761 H   0  0  0  0  0  0  0  0  0  0  0  0
    6.9197   -1.4368    1.9074 H   0  0  0  0  0  0  0  0  0  0  0  0
   -7.1131   -3.2925    0.1139 H   0  0  0  0  0  0  0  0  0  0  0  0
   -8.2748    0.6300    0.5753 H   0  0  0  0  0  0  0  0  0  0  0  0
    7.7727   -3.0684    0.6525 H   0  0  0  0  0  0  0  0  0  0  0  0
    6.3114   -3.5608    1.6173 H   0  0  0  0  0  0  0  0  0  0  0  0
    6.8168   -4.4759    0.2011 H   0  0  0  0  0  0  0  0  0  0  0  0
  1 14  2  0  0  0  0
  2 22  1  0  0  0  0
  2 27  1  0  0  0  0
  3  7  1  0  0  0  0
  3 11  1  0  0  0  0
  3 29  1  0  0  0  0
  4 14  1  0  0  0  0
  4 15  1  0  0  0  0
  4 35  1  0  0  0  0
  5 25  2  0  0  0  0
  5 26  1  0  0  0  0
  6  7  2  0  0  0  0
  6  8  1  0  0  0  0
  6 12  1  0  0  0  0
  7  9  1  0  0  0  0
  8 11  2  0  0  0  0
  8 14  1  0  0  0  0
  9 10  2  0  0  0  0
  9 28  1  0  0  0  0
 10 13  1  0  0  0  0
 10 16  1  0  0  0  0
 11 30  1  0  0  0  0
 12 13  2  0  0  0  0
 12 31  1  0  0  0  0
 13 32  1  0  0  0  0
 15 17  1  0  0  0  0
 15 33  1  0  0  0  0
 15 34  1  0  0  0  0
 16 19  2  0  0  0  0
 16 20  1  0  0  0  0
 17 18  2  0  0  0  0
 17 21  1  0  0  0  0
 18 22  1  0  0  0  0
 18 36  1  0  0  0  0
 19 25  1  0  0  0  0
 19 38  1  0  0  0  0
 20 26  2  0  0  0  0
 20 39  1  0  0  0  0
 21 23  2  0  0  0  0
 21 37  1  0  0  0  0
 22 24  2  0  0  0  0
 23 24  1  0  0  0  0
 23 40  1  0  0  0  0
 24 41  1  0  0  0  0
 25 42  1  0  0  0  0
 26 43  1  0  0  0  0
 27 44  1  0  0  0  0
 27 45  1  0  0  0  0
 27 46  1  0  0  0  0
M  END
> <PUBCHEM_COMPOUND_CID>
52935716

> <PUBCHEM_CONFORMER_RMSD>
0.8

> <PUBCHEM_CONFORMER_DIVERSEORDER>
1
11
12
40
61
68
43
71
54
39
55
35
49
79
66
34
24
19
73
82
53
58
30
51
17
7
14
70
9
38
52
56
10
32
45
29
2
5
81
16
76
21
78
60
74
77
48
47
57
28
36
46
22
27
80
33
4
50
3
62
69
13
26
44
8
31
67
18
42
23
72
64
63
6
20
59
65
15
75
41
37
25

> <PUBCHEM_MMFF94_PARTIAL_CHARGES>
38
1 -0.57
11 -0.3
12 -0.15
13 -0.15
14 0.72
15 0.44
17 -0.14
18 -0.15
19 -0.15
2 -0.36
20 -0.15
21 -0.15
22 0.08
23 -0.15
24 -0.15
25 0.16
26 0.16
27 0.28
28 0.15
29 0.27
3 0.03
30 0.15
31 0.15
32 0.15
35 0.37
36 0.15
37 0.15
38 0.15
39 0.15
4 -0.73
40 0.15
41 0.15
42 0.15
43 0.15
5 -0.62
7 -0.15
8 -0.09
9 -0.15

> <PUBCHEM_EFFECTIVE_ROTOR_COUNT>
6

> <PUBCHEM_PHARMACOPHORE_FEATURES>
10
1 1 acceptor
1 2 acceptor
1 3 cation
1 3 donor
1 4 donor
1 5 acceptor
5 3 6 7 8 11 rings
6 17 18 21 22 23 24 rings
6 5 16 19 20 25 26 rings
6 6 7 9 10 12 13 rings

> <PUBCHEM_HEAVY_ATOM_COUNT>
27

> <PUBCHEM_ATOM_DEF_STEREO_COUNT>
0

> <PUBCHEM_ATOM_UDEF_STEREO_COUNT>
0

> <PUBCHEM_BOND_DEF_STEREO_COUNT>
0

> <PUBCHEM_BOND_UDEF_STEREO_COUNT>
0

> <PUBCHEM_ISOTOPIC_ATOM_COUNT>
0

> <PUBCHEM_COMPONENT_COUNT>
1

> <PUBCHEM_CACTVS_TAUTO_COUNT>
9

> <PUBCHEM_CONFORMER_ID>
0327BC2400000001

> <PUBCHEM_MMFF94_ENERGY>
79.3819

> <PUBCHEM_FEATURE_SELFOVERLAP>
50.839

> <PUBCHEM_SHAPE_FINGERPRINT>
10 15 17203328943990233960
10319926 262 17631175178547448676
10673678 19 9007054686558793520
10753850 27 18259983785984829648
10939801 23 18058730342211300692
117089 54 17982739567843996350
11719270 70 18201725058955206655
12166972 35 18040720281049095644
12236239 1 18334579066129753405
12342043 65 16413821214347819940
12539765 74 11025783281290060481
13533116 47 18335703862520027720
13540713 4 17058388980481225060
1361 4 18115875268236037523
13668630 136 17894629253366250802
13782708 43 17894630404950281359
13914758 101 17967250876096323133
14211702 104 18408611369886794282
14251752 14 18187362130420000749
14251757 52 10087641494137630406
14347332 77 18040429971377482277
14528608 73 9295289443698408020
14537116 161 12829484869878435454
14565420 104 12895356577560581980
15001296 14 18041275573418628442
15183329 4 12685088168360423948
15188451 53 18335416851251293008
15475509 35 18342731915201348426
16728300 4 18267859497759942806
16994733 274 12679474066833268655
1768 124 18411416224450274830
1813 80 17822013078274838764
19053607 189 8716813252718555294
19301679 30 18339642244356201692
1979834 28 17203620284870619748
19841028 212 18333730191961857746
20028762 73 18410013200511277042
20165401 70 18410852161984630182
20281389 69 11455900139241491099
21130935 74 18412546535093066011
21344244 181 17749394788249841714
21792934 111 18059855043859178281
221357 26 14056712461475308860
2215653 11 14779546794490720340
22224240 67 15554450712800668173
23522609 53 18121815882833911277
23559900 14 16878792763231607021
3004659 81 18338529632725031548
3383291 50 18335984250680791275
3472631 163 8718823202495319808
34797466 226 15936693765248601924
3886686 26 17407406832353556030
393628 194 11094153143625918266
397830 11 13973679598498797391
4058900 60 8502113871655867509
406291 66 18261951848012895298
437795 160 15625946483016165887
445580 167 8790594880665789745
474113 269 18342450431571705007
5104073 3 17559968640056605641
5718773 13 18334857190984402866
59682541 52 14273730751172612776
59755656 215 13768195112910352369
6081469 158 18186795925345060445
9689198 14 10159698018881383445
9980921 221 14562803292780562423

> <PUBCHEM_SHAPE_MULTIPOLES>
528.97
22.42
2.79
1.15
6.82
1.43
-0.03
16.99
5.89
-3.08
0.41
-1.32
-0.2
-0.82

> <PUBCHEM_SHAPE_SELFOVERLAP>
1173.183

> <PUBCHEM_SHAPE_VOLUME>
283

> <PUBCHEM_COORDINATE_TYPE>
2
5
10

$$$$
57402971
  -OEChem-05102415093D

 45 48  0     0  0  0  0  0  0999 V2000
   -1.4885   -0.0712   -1.6676 O   0  0  0  0  0  0  0  0  0  0  0  0
   -5.9955    2.5954   -0.4363 O   0  0  0  0  0  0  0  0  0  0  0  0
    1.4065   -2.2653    1.0900 N   0  0  0  0  0  0  0  0  0  0  0  0
   -2.4556   -1.8469   -0.5326 N   0  0  0  0  0  0  0  0  0  0  0  0
    3.3396   -0.9014    0.6351 N   0  0  0  0  0  0  0  0  0  0  0  0
    7.7871    1.2559    0.3800 N   0  0  0  0  0  0  0  0  0  0  0  0
    1.1187   -0.5882   -0.3563 C   0  0  0  0  0  0  0  0  0  0  0  0
   -0.1110   -1.2823   -0.2068 C   0  0  0  0  0  0  0  0  0  0  0  0
    2.0439   -1.2259    0.4651 C   0  0  0  0  0  0  0  0  0  0  0  0
    0.0964   -2.3089    0.6890 C   0  0  0  0  0  0  0  0  0  0  0  0
    1.5665    0.5173   -1.0975 C   0  0  0  0  0  0  0  0  0  0  0  0
   -1.3671   -1.0093   -0.8448 C   0  0  0  0  0  0  0  0  0  0  0  0
    3.7158    0.1693   -0.1019 C   0  0  0  0  0  0  0  0  0  0  0  0
   -3.7750   -1.7152   -1.1078 C   0  0  0  0  0  0  0  0  0  0  0  0
    2.9006    0.8965   -0.9589 C   0  0  0  0  0  0  0  0  0  0  0  0
   -4.6525   -0.8049   -0.2983 C   0  0  0  0  0  0  0  0  0  0  0  0
    5.1036    0.5402    0.0624 C   0  0  0  0  0  0  0  0  0  0  0  0
   -4.9205    0.4878   -0.7489 C   0  0  0  0  0  0  0  0  0  0  0  0
   -5.1994   -1.2515    0.9050 C   0  0  0  0  0  0  0  0  0  0  0  0
   -5.7353    1.3338    0.0033 C   0  0  0  0  0  0  0  0  0  0  0  0
   -6.0140   -0.4053    1.6574 C   0  0  0  0  0  0  0  0  0  0  0  0
    5.4376    1.8036    0.5381 C   0  0  0  0  0  0  0  0  0  0  0  0
    6.1099   -0.3656   -0.2546 C   0  0  0  0  0  0  0  0  0  0  0  0
   -6.2822    0.8873    1.2064 C   0  0  0  0  0  0  0  0  0  0  0  0
    6.7818    2.1094    0.6776 C   0  0  0  0  0  0  0  0  0  0  0  0
    7.4240    0.0374   -0.0795 C   0  0  0  0  0  0  0  0  0  0  0  0
   -6.8354    3.4078    0.3825 C   0  0  0  0  0  0  0  0  0  0  0  0
   -0.5509   -3.0757    1.0908 H   0  0  0  0  0  0  0  0  0  0  0  0
    1.8374   -2.9018    1.7459 H   0  0  0  0  0  0  0  0  0  0  0  0
    0.9089    1.0683   -1.7616 H   0  0  0  0  0  0  0  0  0  0  0  0
   -4.2180   -2.7164   -1.1575 H   0  0  0  0  0  0  0  0  0  0  0  0
   -3.6819   -1.3547   -2.1387 H   0  0  0  0  0  0  0  0  0  0  0  0
    3.2748    1.7447   -1.5247 H   0  0  0  0  0  0  0  0  0  0  0  0
   -2.3387   -2.5934    0.1435 H   0  0  0  0  0  0  0  0  0  0  0  0
   -4.4966    0.8440   -1.6846 H   0  0  0  0  0  0  0  0  0  0  0  0
   -4.9974   -2.2564    1.2662 H   0  0  0  0  0  0  0  0  0  0  0  0
   -6.4391   -0.7539    2.5942 H   0  0  0  0  0  0  0  0  0  0  0  0
    4.6845    2.5389    0.8027 H   0  0  0  0  0  0  0  0  0  0  0  0
    5.8921   -1.3597   -0.6319 H   0  0  0  0  0  0  0  0  0  0  0  0
   -6.9226    1.4914    1.8399 H   0  0  0  0  0  0  0  0  0  0  0  0
    7.0950    3.0808    1.0460 H   0  0  0  0  0  0  0  0  0  0  0  0
    8.2458   -0.6315   -0.3129 H   0  0  0  0  0  0  0  0  0  0  0  0
   -7.8428    2.9865    0.4681 H   0  0  0  0  0  0  0  0  0  0  0  0
   -6.3808    3.5989    1.3604 H   0  0  0  0  0  0  0  0  0  0  0  0
   -6.9356    4.3764   -0.1181 H   0  0  0  0  0  0  0  0  0  0  0  0
  1 12  2  0  0  0  0
  2 20  1  0  0  0  0
  2 27  1  0  0  0  0
  3  9  1  0  0  0  0
  3 10  1  0  0  0  0
  3 29  1  0  0  0  0
  4 12  1  0  0  0  0
  4 14  1  0  0  0  0
  4 34  1  0  0  0  0
  5  9  1  0  0  0  0
  5 13  2  0  0  0  0
  6 25  2  0  0  0  0
  6 26  1  0  0  0  0
  7  8  1  0  0  0  0
  7  9  2  0  0  0  0
  7 11  1  0  0  0  0
  8 10  2  0  0  0  0
  8 12  1  0  0  0  0
 10 28  1  0  0  0  0
 11 15  2  0  0  0  0
 11 30  1  0  0  0  0
 13 15  1  0  0  0  0
 13 17  1  0  0  0  0
 14 16  1  0  0  0  0
 14 31  1  0  0  0  0
 14 32  1  0  0  0  0
 15 33  1  0  0  0  0
 16 18  2  0  0  0  0
 16 19  1  0  0  0  0
 17 22  2  0  0  0  0
 17 23  1  0  0  0  0
 18 20  1  0  0  0  0
 18 35  1  0  0  0  0
 19 21  2  0  0  0  0
 19 36  1  0  0  0  0
 20 24  2  0  0  0  0
 21 24  1  0  0  0  0
 21 37  1  0  0  0  0
 22 25  1  0  0  0  0
 22 38  1  0  0  0  0
 23 26  2  0  0  0  0
 23 39  1  0  0  0  0
 24 40  1  0  0  0  0
 25 41  1  0  0  0  0
 26 42  1  0  0  0  0
 27 43  1  0  0  0  0
 27 44  1  0  0  0  0
 27 45  1  0  0  0  0
M  END
> <PUBCHEM_COMPOUND_CID>
57402971

> <PUBCHEM_CONFORMER_RMSD>
0.8

> <PUBCHEM_CONFORMER_DIVERSEORDER>
1
74
73
10
4
18
37
46
51
22
88
86
32
59
85
71
65
9
30
38
81
77
5
63
64
15
68
61
56
83
13
76
44
35
69
67
42
12
26
28
19
70
49
16
39
72
82
6
78
84
40
62
29
79
33
20
41
11
31
87
55
52
80
25
50
23
17
3
27
53
54
57
43
34
2
75
45
66
21
14
8
47
58
24
7
48
36
60

> <PUBCHEM_MMFF94_PARTIAL_CHARGES>
38
1 -0.57
10 -0.3
11 -0.15
12 0.72
13 0.31
14 0.44
15 -0.15
16 -0.14
18 -0.15
19 -0.15
2 -0.36
20 0.08
21 -0.15
22 -0.15
23 -0.15
24 -0.15
25 0.16
26 0.16
27 0.28
28 0.15
29 0.27
3 0.03
30 0.15
33 0.15
34 0.37
35 0.15
36 0.15
37 0.15
38 0.15
39 0.15
4 -0.73
40 0.15
41 0.15
42 0.15
5 -0.57
6 -0.62
8 -0.09
9 0.11

> <PUBCHEM_EFFECTIVE_ROTOR_COUNT>
6

> <PUBCHEM_PHARMACOPHORE_FEATURES>
11
1 1 acceptor
1 2 acceptor
1 3 cation
1 3 donor
1 4 donor
1 5 acceptor
1 6 acceptor
5 3 7 8 9 10 rings
6 16 18 19 20 21 24 rings
6 5 7 9 11 13 15 rings
6 6 17 22 23 25 26 rings

> <PUBCHEM_HEAVY_ATOM_COUNT>
27

> <PUBCHEM_ATOM_DEF_STEREO_COUNT>
0

> <PUBCHEM_ATOM_UDEF_STEREO_COUNT>
0

> <PUBCHEM_BOND_DEF_STEREO_COUNT>
0

> <PUBCHEM_BOND_UDEF_STEREO_COUNT>
0

> <PUBCHEM_ISOTOPIC_ATOM_COUNT>
0

> <PUBCHEM_COMPONENT_COUNT>
1

> <PUBCHEM_CACTVS_TAUTO_COUNT>
11

> <PUBCHEM_CONFORMER_ID>
036BE65B00000001

> <PUBCHEM_MMFF94_ENERGY>
75.7365

> <PUBCHEM_FEATURE_SELFOVERLAP>
55.935

> <PUBCHEM_SHAPE_FINGERPRINT>
10 15 18260548914087725625
10066227 112 18060136544077846960
10554248 39 16056609742111619804
10670039 82 16343706500410683683
10674148 151 18408040724522544898
10906281 52 18041569147803339638
11135609 99 7853562513915933880
11456790 92 18335412483760307056
11646440 116 18113899394738978212
11761917 87 16082195305075989512
12236239 1 18343581871648781334
12539765 74 18341902926742576110
13167372 99 18412543223957915736
13540713 4 16952513707313078375
1361 4 8574169249517356032
13668630 136 9583518711574458137
13690498 29 16772095072398184431
13782708 43 11963656834095129944
14211702 104 11314302811139499985
14394314 77 18340771430225269273
14849402 71 17896609568704033500
14856354 85 17386012809931211975
14933364 13 18341613741624114206
15021287 119 16732982084706095583
15183329 4 13686301257532082103
15461852 350 17846491565715139511
15475509 8 18261966176297387118
16994733 274 18271800263872308144
18222031 100 10879997947651593326
20281389 69 18342740736441662187
21033648 29 18199738323707141720
21130935 74 18260826016857184610
21424621 283 18410855486351783002
21756936 100 18411980295537847015
21781055 127 18259707801421709352
22224240 67 17967530207283070459
23389318 12 10375864200332196826
23522609 53 17459209502315154812
23559900 14 10087631598575652983
23569914 2 16983727854699394641
23576562 1 14619932959377131696
24771293 8 18263919020765646948
2838139 119 18201434830550179732
3009799 131 13830136105030341410
3178227 256 17168145663381997908
3633792 109 16988857081728816422
392239 28 16153710933874908755
4093350 32 18202002110770002422
4340502 62 14924215028910820026
4938544 92 16515675608142513045
504843 32 17131829902376383647
5104073 3 17676756570488712954
5385378 56 18040991822505136690
54039377 194 9439393654260251221
5718773 13 8358248251096694481
5758199 1 18187364341816331666
5969126 39 11743852351900328602
6201460 15 11967674510093538009
6328613 192 18273494563476286545
636775 72 18269268135712235528
6431902 208 10881398738540120857
7226269 152 18131354111495943953
7495541 125 14129059239946044990
9689198 14 18412831282718454154
999808 66 11386368136609040817

> <PUBCHEM_SHAPE_MULTIPOLES>
523.98
22.44
2.64
1.19
7.3
1.36
0.02
16.39
5.08
-3.35
0.4
-1.13
-0.16
0.1

> <PUBCHEM_SHAPE_SELFOVERLAP>
1161.733

> <PUBCHEM_SHAPE_VOLUME>
278.2

> <PUBCHEM_COORDINATE_TYPE>
2
5
10

$$$$
57397803
  -OEChem-05102415093D

 43 46  0     0  0  0  0  0  0999 V2000
   -4.8376    1.9004    0.0712 O   0  0  0  0  0  0  0  0  0  0  0  0
   -1.6224   -2.0394    1.1092 O   0  0  0  0  0  0  0  0  0  0  0  0
    0.9815   -1.0254    0.5636 N   0  0  0  0  0  0  0  0  0  0  0  0
   -2.4780    0.1052    1.3234 N   0  0  0  0  0  0  0  0  0  0  0  0
    3.3103   -0.6449    0.0788 N   0  0  0  0  0  0  0  0  0  0  0  0
    7.2655   -1.3256   -0.7771 N   0  0  0  0  0  0  0  0  0  0  0  0
    7.7717   -0.0829   -0.8545 N   0  0  0  0  0  0  0  0  0  0  0  0
    1.6407    1.1065    0.4767 C   0  0  0  0  0  0  0  0  0  0  0  0
    2.0650   -0.2133    0.3539 C   0  0  0  0  0  0  0  0  0  0  0  0
   -0.1257   -0.2582    0.8171 C   0  0  0  0  0  0  0  0  0  0  0  0
    0.2520    1.0664    0.7707 C   0  0  0  0  0  0  0  0  0  0  0  0
   -3.8366   -0.2855    1.6236 C   0  0  0  0  0  0  0  0  0  0  0  0
    2.6026    2.1136    0.2972 C   0  0  0  0  0  0  0  0  0  0  0  0
    4.1946    0.3666   -0.0839 C   0  0  0  0  0  0  0  0  0  0  0  0
   -1.4224   -0.7989    1.0775 C   0  0  0  0  0  0  0  0  0  0  0  0
   -4.6562   -0.4700    0.3792 C   0  0  0  0  0  0  0  0  0  0  0  0
    3.9090    1.7221    0.0099 C   0  0  0  0  0  0  0  0  0  0  0  0
    5.5377   -0.0498   -0.3796 C   0  0  0  0  0  0  0  0  0  0  0  0
   -5.1188    0.6321   -0.3396 C   0  0  0  0  0  0  0  0  0  0  0  0
   -4.9541   -1.7614   -0.0558 C   0  0  0  0  0  0  0  0  0  0  0  0
   -5.8793    0.4428   -1.4936 C   0  0  0  0  0  0  0  0  0  0  0  0
    5.9316   -1.3607   -0.4949 C   0  0  0  0  0  0  0  0  0  0  0  0
   -5.7146   -1.9507   -1.2097 C   0  0  0  0  0  0  0  0  0  0  0  0
    6.7115    0.6920   -0.6107 C   0  0  0  0  0  0  0  0  0  0  0  0
   -6.1773   -0.8486   -1.9287 C   0  0  0  0  0  0  0  0  0  0  0  0
   -5.3507    2.9675   -0.7238 C   0  0  0  0  0  0  0  0  0  0  0  0
   -0.3826    1.9280    0.9269 H   0  0  0  0  0  0  0  0  0  0  0  0
    0.9997   -2.0355    0.5343 H   0  0  0  0  0  0  0  0  0  0  0  0
   -4.2772    0.4902    2.2601 H   0  0  0  0  0  0  0  0  0  0  0  0
   -3.8158   -1.2064    2.2180 H   0  0  0  0  0  0  0  0  0  0  0  0
    2.3439    3.1644    0.3781 H   0  0  0  0  0  0  0  0  0  0  0  0
   -2.2966    1.1025    1.2829 H   0  0  0  0  0  0  0  0  0  0  0  0
    4.6612    2.4917   -0.1310 H   0  0  0  0  0  0  0  0  0  0  0  0
   -4.5999   -2.6302    0.4926 H   0  0  0  0  0  0  0  0  0  0  0  0
   -6.2724    1.2494   -2.1027 H   0  0  0  0  0  0  0  0  0  0  0  0
    5.4074   -2.3024   -0.4064 H   0  0  0  0  0  0  0  0  0  0  0  0
   -5.9463   -2.9562   -1.5486 H   0  0  0  0  0  0  0  0  0  0  0  0
    6.8544    1.7633   -0.6150 H   0  0  0  0  0  0  0  0  0  0  0  0
   -6.7693   -0.9973   -2.8271 H   0  0  0  0  0  0  0  0  0  0  0  0
    7.8896   -2.1082   -0.9285 H   0  0  0  0  0  0  0  0  0  0  0  0
   -4.9243    2.9607   -1.7327 H   0  0  0  0  0  0  0  0  0  0  0  0
   -6.4460    2.9744   -0.7327 H   0  0  0  0  0  0  0  0  0  0  0  0
   -5.0317    3.9025   -0.2514 H   0  0  0  0  0  0  0  0  0  0  0  0
  1 19  1  0  0  0  0
  1 26  1  0  0  0  0
  2 15  2  0  0  0  0
  3  9  1  0  0  0  0
  3 10  1  0  0  0  0
  3 28  1  0  0  0  0
  4 12  1  0  0  0  0
  4 15  1  0  0  0  0
  4 32  1  0  0  0  0
  5  9  1  0  0  0  0
  5 14  2  0  0  0  0
  6  7  1  0  0  0  0
  6 22  1  0  0  0  0
  6 40  1  0  0  0  0
  7 24  2  0  0  0  0
  8  9  2  0  0  0  0
  8 11  1  0  0  0  0
  8 13  1  0  0  0  0
 10 11  2  0  0  0  0
 10 15  1  0  0  0  0
 11 27  1  0  0  0  0
 12 16  1  0  0  0  0
 12 29  1  0  0  0  0
 12 30  1  0  0  0  0
 13 17  2  0  0  0  0
 13 31  1  0  0  0  0
 14 17  1  0  0  0  0
 14 18  1  0  0  0  0
 16 19  1  0  0  0  0
 16 20  2  0  0  0  0
 17 33  1  0  0  0  0
 18 22  2  0  0  0  0
 18 24  1  0  0  0  0
 19 21  2  0  0  0  0
 20 23  1  0  0  0  0
 20 34  1  0  0  0  0
 21 25  1  0  0  0  0
 21 35  1  0  0  0  0
 22 36  1  0  0  0  0
 23 25  2  0  0  0  0
 23 37  1  0  0  0  0
 24 38  1  0  0  0  0
 25 39  1  0  0  0  0
 26 41  1  0  0  0  0
 26 42  1  0  0  0  0
 26 43  1  0  0  0  0
M  END
> <PUBCHEM_COMPOUND_CID>
57397803

> <PUBCHEM_CONFORMER_RMSD>
0.8

> <PUBCHEM_CONFORMER_DIVERSEORDER>
1
12
17
61
27
37
23
65
25
43
36
30
47
22
45
56
50
29
66
8
54
46
57
40
11
7
48
4
44
52
41
15
21
58
13
64
59
32
67
3
53
24
38
69
14
9
26
42
31
10
39
20
68
6
63
35
19
2
55
51
28
34
33
73
16
71
18
62
5
72
70
49
60

> <PUBCHEM_MMFF94_PARTIAL_CHARGES>
37
1 -0.36
10 -0.24
11 -0.15
12 0.44
13 -0.15
14 0.36
15 0.71
16 -0.14
17 -0.15
18 -0.05
19 0.08
2 -0.57
20 -0.15
21 -0.15
22 -0.3
23 -0.15
24 0.14
25 -0.15
26 0.28
27 0.15
28 0.27
3 0.03
31 0.15
32 0.37
33 0.15
34 0.15
35 0.15
36 0.15
37 0.15
38 0.15
39 0.15
4 -0.73
40 0.27
5 -0.57
6 0.3
7 -0.71
9 0.11

> <PUBCHEM_EFFECTIVE_ROTOR_COUNT>
6

> <PUBCHEM_PHARMACOPHORE_FEATURES>
12
1 1 acceptor
1 2 acceptor
1 3 cation
1 3 donor
1 4 donor
1 5 acceptor
1 6 donor
1 7 acceptor
5 3 8 9 10 11 rings
5 6 7 18 22 24 rings
6 16 19 20 21 23 25 rings
6 5 8 9 13 14 17 rings

> <PUBCHEM_HEAVY_ATOM_COUNT>
26

> <PUBCHEM_ATOM_DEF_STEREO_COUNT>
0

> <PUBCHEM_ATOM_UDEF_STEREO_COUNT>
0

> <PUBCHEM_BOND_DEF_STEREO_COUNT>
0

> <PUBCHEM_BOND_UDEF_STEREO_COUNT>
0

> <PUBCHEM_ISOTOPIC_ATOM_COUNT>
0

> <PUBCHEM_COMPONENT_COUNT>
1

> <PUBCHEM_CACTVS_TAUTO_COUNT>
46

> <PUBCHEM_CONFORMER_ID>
036BD22B00000001

> <PUBCHEM_MMFF94_ENERGY>
58.4105

> <PUBCHEM_FEATURE_SELFOVERLAP>
61.01

> <PUBCHEM_SHAPE_FINGERPRINT>
10 15 9871754593594817830
10066227 112 16877946070357789348
10554248 39 17749108873047157414
10577160 183 18114449090318108666
10670039 82 18040431075632405213
10763959 59 17967533506055194316
10835480 77 18187932850159268380
11089746 13 18260264170308658272
11135926 11 17203334373467238895
12166972 35 17489591194718533120
12236239 1 17632864139633555864
12539765 74 13045953387531373362
12616971 3 14045741564681635233
12670543 26 18334860506799038002
12838862 33 18409161144124977162
13668630 136 17561085821274913014
13782708 43 16271931485003203342
14251752 14 18409727348603513550
14931854 50 18263346076396733301
15021287 119 14261343656941964137
15064981 113 18126826241387991117
15064981 194 18040443226722301949
15064986 266 18411702128233976307
15183329 4 18334572430093823874
15716309 27 13254796845564531883
16110190 28 9151172069373240513
16994733 274 14851895811256135788
17780758 139 9583518729345067111
18681886 176 17988637527922511202
18927931 339 15841556280140965457
190975 80 11599717393793823646
19377110 9 11312058772547755874
19958102 18 18201995577544308615
20028762 73 17561086904224279142
2026 5 17275106119893423855
21150785 3 17917995009987181268
21521721 280 8069736378957399750
21623969 137 10303817587861018868
21709351 56 18411981373289385801
2215653 11 18409733971891347098
22393880 68 18341321245982926777
23198884 109 18333448755391451727
23402539 116 17132123428809422721
23559900 14 18340487880203445672
23576562 1 18042975470061053782
2838139 119 18186804677402323309
312425 54 9799418849317467837
3663271 9 8718830885664538613
4015057 19 18199755902090711609
4058900 60 17385723569189394506
4340502 62 12247687058902225444
437815 12 18409168822556454908
531348 171 18341892983381666639
5364581 5 9583221860689207127
5758199 1 7853853876239409036
59755656 215 18260268530138534370
6328613 192 17603875537190115660
7226269 152 14779262008220520095
9689198 14 13190345651967559942
9953998 17 10159700201099530887

> <PUBCHEM_SHAPE_MULTIPOLES>
498.42
21.19
2.17
1.33
14.72
0.91
-0.09
-2.77
-11.04
-2.28
-0.31
-1.92
-0.27
0.45

> <PUBCHEM_SHAPE_SELFOVERLAP>
1107.621

> <PUBCHEM_SHAPE_VOLUME>
266.9

> <PUBCHEM_COORDINATE_TYPE>
2
5
10

$$$$
52935064
  -OEChem-05102415093D

 43 46  0     0  0  0  0  0  0999 V2000
   -1.4817   -0.3986   -2.1624 O   0  0  0  0  0  0  0  0  0  0  0  0
   -7.0254    1.9766    1.1627 O   0  0  0  0  0  0  0  0  0  0  0  0
    1.1410   -0.1755   -1.0770 N   0  0  0  0  0  0  0  0  0  0  0  0
    3.4475    0.2886   -0.5597 N   0  0  0  0  0  0  0  0  0  0  0  0
   -2.1559   -1.7596   -0.4103 N   0  0  0  0  0  0  0  0  0  0  0  0
    7.2634    1.7782   -0.8032 N   0  0  0  0  0  0  0  0  0  0  0  0
    7.8534    1.2662    0.2905 N   0  0  0  0  0  0  0  0  0  0  0  0
    1.9487   -1.1149    0.7810 C   0  0  0  0  0  0  0  0  0  0  0  0
    2.2626   -0.2955   -0.2994 C   0  0  0  0  0  0  0  0  0  0  0  0
    0.1168   -0.8971   -0.5210 C   0  0  0  0  0  0  0  0  0  0  0  0
    0.5876   -1.4906    0.6303 C   0  0  0  0  0  0  0  0  0  0  0  0
    2.9664   -1.3724    1.7135 C   0  0  0  0  0  0  0  0  0  0  0  0
    4.3896    0.0063    0.3700 C   0  0  0  0  0  0  0  0  0  0  0  0
   -1.1927   -0.9804   -1.0864 C   0  0  0  0  0  0  0  0  0  0  0  0
   -3.5129   -1.9596   -0.8658 C   0  0  0  0  0  0  0  0  0  0  0  0
    4.2140   -0.7919    1.4924 C   0  0  0  0  0  0  0  0  0  0  0  0
   -4.4463   -0.9144   -0.3267 C   0  0  0  0  0  0  0  0  0  0  0  0
    5.6712    0.6105    0.1308 C   0  0  0  0  0  0  0  0  0  0  0  0
   -4.8630   -0.9699    1.0034 C   0  0  0  0  0  0  0  0  0  0  0  0
   -4.8964    0.1127   -1.1563 C   0  0  0  0  0  0  0  0  0  0  0  0
    5.9562    1.4157   -0.9449 C   0  0  0  0  0  0  0  0  0  0  0  0
   -5.7299    0.0013    1.5038 C   0  0  0  0  0  0  0  0  0  0  0  0
   -5.7634    1.0840   -0.6559 C   0  0  0  0  0  0  0  0  0  0  0  0
   -6.1802    1.0283    0.6741 C   0  0  0  0  0  0  0  0  0  0  0  0
    6.8759    0.5538    0.8569 C   0  0  0  0  0  0  0  0  0  0  0  0
   -7.4465    2.9981    0.2598 C   0  0  0  0  0  0  0  0  0  0  0  0
    0.0330   -2.1279    1.3055 H   0  0  0  0  0  0  0  0  0  0  0  0
    1.0815    0.3643   -1.9294 H   0  0  0  0  0  0  0  0  0  0  0  0
    2.7938   -2.0020    2.5804 H   0  0  0  0  0  0  0  0  0  0  0  0
   -3.8322   -2.9543   -0.5346 H   0  0  0  0  0  0  0  0  0  0  0  0
   -3.5249   -1.9676   -1.9618 H   0  0  0  0  0  0  0  0  0  0  0  0
    5.0084   -0.9838    2.2066 H   0  0  0  0  0  0  0  0  0  0  0  0
   -1.9039   -2.2128    0.4616 H   0  0  0  0  0  0  0  0  0  0  0  0
   -4.5186   -1.7654    1.6590 H   0  0  0  0  0  0  0  0  0  0  0  0
   -4.5779    0.1683   -2.1939 H   0  0  0  0  0  0  0  0  0  0  0  0
    5.3716    1.7635   -1.7856 H   0  0  0  0  0  0  0  0  0  0  0  0
   -6.0510   -0.0471    2.5407 H   0  0  0  0  0  0  0  0  0  0  0  0
   -6.0736    1.8536   -1.3544 H   0  0  0  0  0  0  0  0  0  0  0  0
    7.0975    0.0284    1.7751 H   0  0  0  0  0  0  0  0  0  0  0  0
    7.8139    2.3700   -1.4128 H   0  0  0  0  0  0  0  0  0  0  0  0
   -8.1142    3.6651    0.8151 H   0  0  0  0  0  0  0  0  0  0  0  0
   -8.0269    2.5854   -0.5724 H   0  0  0  0  0  0  0  0  0  0  0  0
   -6.6018    3.6049   -0.0836 H   0  0  0  0  0  0  0  0  0  0  0  0
  1 14  2  0  0  0  0
  2 24  1  0  0  0  0
  2 26  1  0  0  0  0
  3  9  1  0  0  0  0
  3 10  1  0  0  0  0
  3 28  1  0  0  0  0
  4  9  1  0  0  0  0
  4 13  2  0  0  0  0
  5 14  1  0  0  0  0
  5 15  1  0  0  0  0
  5 33  1  0  0  0  0
  6  7  1  0  0  0  0
  6 21  1  0  0  0  0
  6 40  1  0  0  0  0
  7 25  2  0  0  0  0
  8  9  2  0  0  0  0
  8 11  1  0  0  0  0
  8 12  1  0  0  0  0
 10 11  2  0  0  0  0
 10 14  1  0  0  0  0
 11 27  1  0  0  0  0
 12 16  2  0  0  0  0
 12 29  1  0  0  0  0
 13 16  1  0  0  0  0
 13 18  1  0  0  0  0
 15 17  1  0  0  0  0
 15 30  1  0  0  0  0
 15 31  1  0  0  0  0
 16 32  1  0  0  0  0
 17 19  2  0  0  0  0
 17 20  1  0  0  0  0
 18 21  2  0  0  0  0
 18 25  1  0  0  0  0
 19 22  1  0  0  0  0
 19 34  1  0  0  0  0
 20 23  2  0  0  0  0
 20 35  1  0  0  0  0
 21 36  1  0  0  0  0
 22 24  2  0  0  0  0
 22 37  1  0  0  0  0
 23 24  1  0  0  0  0
 23 38  1  0  0  0  0
 25 39  1  0  0  0  0
 26 41  1  0  0  0  0
 26 42  1  0  0  0  0
 26 43  1  0  0  0  0
M  END
> <PUBCHEM_COMPOUND_CID>
52935064

> <PUBCHEM_CONFORMER_RMSD>
0.8

> <PUBCHEM_CONFORMER_DIVERSEORDER>
1
6
19
2
15
22
13
9
21
8
18
3
14
17
7
4
20
10
5
12
11
16

> <PUBCHEM_MMFF94_PARTIAL_CHARGES>
37
1 -0.57
10 -0.24
11 -0.15
12 -0.15
13 0.36
14 0.71
15 0.44
16 -0.15
17 -0.14
18 -0.05
19 -0.15
2 -0.36
20 -0.15
21 -0.3
22 -0.15
23 -0.15
24 0.08
25 0.14
26 0.28
27 0.15
28 0.27
29 0.15
3 0.03
32 0.15
33 0.37
34 0.15
35 0.15
36 0.15
37 0.15
38 0.15
39 0.15
4 -0.57
40 0.27
5 -0.73
6 0.3
7 -0.71
9 0.11

> <PUBCHEM_EFFECTIVE_ROTOR_COUNT>
6

> <PUBCHEM_PHARMACOPHORE_FEATURES>
12
1 1 acceptor
1 2 acceptor
1 3 cation
1 3 donor
1 4 acceptor
1 5 donor
1 6 donor
1 7 acceptor
5 3 8 9 10 11 rings
5 6 7 18 21 25 rings
6 17 19 20 22 23 24 rings
6 4 8 9 12 13 16 rings

> <PUBCHEM_HEAVY_ATOM_COUNT>
26

> <PUBCHEM_ATOM_DEF_STEREO_COUNT>
0

> <PUBCHEM_ATOM_UDEF_STEREO_COUNT>
0

> <PUBCHEM_BOND_DEF_STEREO_COUNT>
0

> <PUBCHEM_BOND_UDEF_STEREO_COUNT>
0

> <PUBCHEM_ISOTOPIC_ATOM_COUNT>
0

> <PUBCHEM_COMPONENT_COUNT>
1

> <PUBCHEM_CACTVS_TAUTO_COUNT>
46

> <PUBCHEM_CONFORMER_ID>
0327B99800000001

> <PUBCHEM_MMFF94_ENERGY>
57.3774

> <PUBCHEM_FEATURE_SELFOVERLAP>
61.01

> <PUBCHEM_SHAPE_FINGERPRINT>
10 15 17095519599777379279
10066227 112 17560799974338064552
10554248 39 17703503277456127662
106641 1 18260270772549228435
10670039 82 16272215167466458947
10693767 8 12247414354164617116
10763959 59 16558747944719536080
10906281 52 18113907099926287206
11181472 205 18201166486443754520
11315181 36 18260824934883517663
11456790 92 17531514461396574696
11963148 33 8214152832624180928
12035758 1 15430039863430519747
12166972 35 9367347050685197646
12236239 1 18335978744547963150
12539765 74 18336837485368939014
12596602 18 18186523185704374787
13668630 136 9295292741842933936
13782708 43 7925646496506935918
14211702 104 11458695080498674928
14251757 52 18341896272946800624
14251764 18 18334010618908181183
14359421 15 9294995814624802281
14765038 42 17822010917099277579
14849402 71 17605001497168868396
14931854 50 14907896030139346123
14951699 99 18410294666807784649
15142383 8 17418091023585855882
15183329 4 14189580719092842006
15461852 350 17989200482819707519
15510800 12 11674884338239018001
1577012 14 18343297055261211391
16120349 189 18271519781523743973
16994733 274 18270113643263828424
17780758 139 15791729698999473887
190975 80 15068629317643966555
19958102 18 12391506495097620645
20028762 73 9511468827272364944
2026 5 9439410124843172489
20567600 247 10303819769493525876
21095123 293 18335146410040966884
21521239 73 11887667373148079892
21521721 280 17531246219034117960
21623969 137 16298382461691308218
21781055 127 18261392274768470776
2215653 11 14117804643730533246
22224240 67 17240480333733317586
23081809 10 18341880905459227358
23522609 53 17896333561320339364
23559900 14 13326566402153721342
23576562 1 15769196375475719785
2747138 104 15430034353604605756
312425 54 16950569853049762235
3178227 256 16515685563766006092
3504750 166 9798044421128074542
3663271 9 17967813847286970763
393628 194 18202005383572466905
4015057 19 12535340263651993670
406291 66 7997671092559906393
4093350 32 18410011014683978170
4340502 62 15140950765278215242
439807 62 9583508825224666857
474113 269 15769227038554794110
5104073 3 16444171042134919072
54039377 194 9367338250528991657
5470011 282 11887373817056288745
5718773 13 8214137456661515141
5758199 1 17894911862842075058
57634706 229 17774458109610050107
5911458 16 18409736165987301564
6328613 192 18342738550171836104
7226269 152 18201721747719680169
9689198 14 18410863174279770056
9953998 17 16732703857357454993
999808 66 12829208875844009625

> <PUBCHEM_SHAPE_MULTIPOLES>
498.42
23.21
2.09
1.5
3.18
0.91
-0.01
18.53
5.08
-2.48
0.17
-0.65
-0.23
-2.13

> <PUBCHEM_SHAPE_SELFOVERLAP>
1106.423

> <PUBCHEM_SHAPE_VOLUME>
267.8

> <PUBCHEM_COORDINATE_TYPE>
2
5
10

$$$$
54765280
  -OEChem-05102415093D

 46 49  0     1  0  0  0  0  0999 V2000
    1.3342    2.0010    1.3122 O   0  0  0  0  0  0  0  0  0  0  0  0
    5.6654   -2.5782   -0.6566 O   0  0  0  0  0  0  0  0  0  0  0  0
    2.1703    1.3763   -0.7584 N   0  0  0  0  0  0  0  0  0  0  0  0
   -1.2489    1.0009    0.6530 N   0  0  0  0  0  0  0  0  0  0  0  0
   -3.5514    0.3001    0.5528 N   0  0  0  0  0  0  0  0  0  0  0  0
   -7.4616   -0.3681    1.6030 N   0  0  0  0  0  0  0  0  0  0  0  0
   -7.9628   -0.9763    0.5143 N   0  0  0  0  0  0  0  0  0  0  0  0
    3.5235    1.8337   -0.5378 C   0  0  1  0  0  0  0  0  0  0  0  0
    4.3743    0.7592    0.1044 C   0  0  0  0  0  0  0  0  0  0  0  0
   -0.1545    0.9612   -0.1714 C   0  0  0  0  0  0  0  0  0  0  0  0
   -1.9009    0.0056   -1.2368 C   0  0  0  0  0  0  0  0  0  0  0  0
   -2.3201    0.4248    0.0224 C   0  0  0  0  0  0  0  0  0  0  0  0
   -0.5278    0.3497   -1.3487 C   0  0  0  0  0  0  0  0  0  0  0  0
    1.1271    1.4820    0.1863 C   0  0  0  0  0  0  0  0  0  0  0  0
    4.1221    2.3528   -1.8436 C   0  0  0  0  0  0  0  0  0  0  0  0
    4.6318   -0.4284   -0.5803 C   0  0  0  0  0  0  0  0  0  0  0  0
   -2.8524   -0.6181   -2.0598 C   0  0  0  0  0  0  0  0  0  0  0  0
    4.9002    0.9562    1.3814 C   0  0  0  0  0  0  0  0  0  0  0  0
   -4.4260   -0.3071   -0.2826 C   0  0  0  0  0  0  0  0  0  0  0  0
   -4.1440   -0.7728   -1.5598 C   0  0  0  0  0  0  0  0  0  0  0  0
    5.4153   -1.4191    0.0116 C   0  0  0  0  0  0  0  0  0  0  0  0
   -5.7539   -0.4608    0.2444 C   0  0  0  0  0  0  0  0  0  0  0  0
    5.6835   -0.0346    1.9735 C   0  0  0  0  0  0  0  0  0  0  0  0
    5.9413   -1.2221    1.2885 C   0  0  0  0  0  0  0  0  0  0  0  0
   -6.1427   -0.0387    1.4923 C   0  0  0  0  0  0  0  0  0  0  0  0
   -6.9149   -1.0302   -0.3121 C   0  0  0  0  0  0  0  0  0  0  0  0
    6.4730   -3.5491    0.0076 C   0  0  0  0  0  0  0  0  0  0  0  0
    3.4646    2.6889    0.1477 H   0  0  0  0  0  0  0  0  0  0  0  0
    1.9908    0.8979   -1.6352 H   0  0  0  0  0  0  0  0  0  0  0  0
    0.0992    0.1608   -2.2093 H   0  0  0  0  0  0  0  0  0  0  0  0
   -1.2668    1.3944    1.5838 H   0  0  0  0  0  0  0  0  0  0  0  0
    5.1445    2.7157   -1.6912 H   0  0  0  0  0  0  0  0  0  0  0  0
    3.5236    3.1823   -2.2371 H   0  0  0  0  0  0  0  0  0  0  0  0
    4.1517    1.5809   -2.6208 H   0  0  0  0  0  0  0  0  0  0  0  0
    4.2227   -0.5973   -1.5732 H   0  0  0  0  0  0  0  0  0  0  0  0
   -2.5969   -0.9706   -3.0538 H   0  0  0  0  0  0  0  0  0  0  0  0
    4.7080    1.8754    1.9282 H   0  0  0  0  0  0  0  0  0  0  0  0
   -4.8880   -1.2535   -2.1870 H   0  0  0  0  0  0  0  0  0  0  0  0
    6.0922    0.1196    2.9680 H   0  0  0  0  0  0  0  0  0  0  0  0
    6.5571   -1.9491    1.8069 H   0  0  0  0  0  0  0  0  0  0  0  0
   -5.6240    0.4555    2.3024 H   0  0  0  0  0  0  0  0  0  0  0  0
   -7.0566   -1.4852   -1.2822 H   0  0  0  0  0  0  0  0  0  0  0  0
   -8.0783   -0.2081    2.3898 H   0  0  0  0  0  0  0  0  0  0  0  0
    6.5692   -4.4059   -0.6674 H   0  0  0  0  0  0  0  0  0  0  0  0
    5.9927   -3.9145    0.9217 H   0  0  0  0  0  0  0  0  0  0  0  0
    7.4848   -3.1724    0.1923 H   0  0  0  0  0  0  0  0  0  0  0  0
  1 14  2  0  0  0  0
  2 21  1  0  0  0  0
  2 27  1  0  0  0  0
  3  8  1  0  0  0  0
  3 14  1  0  0  0  0
  3 29  1  0  0  0  0
  4 10  1  0  0  0  0
  4 12  1  0  0  0  0
  4 31  1  0  0  0  0
  5 12  1  0  0  0  0
  5 19  2  0  0  0  0
  6  7  1  0  0  0  0
  6 25  1  0  0  0  0
  6 43  1  0  0  0  0
  7 26  2  0  0  0  0
  8  9  1  0  0  0  0
  8 15  1  0  0  0  0
  8 28  1  0  0  0  0
  9 16  2  0  0  0  0
  9 18  1  0  0  0  0
 10 13  2  0  0  0  0
 10 14  1  0  0  0  0
 11 12  2  0  0  0  0
 11 13  1  0  0  0  0
 11 17  1  0  0  0  0
 13 30  1  0  0  0  0
 15 32  1  0  0  0  0
 15 33  1  0  0  0  0
 15 34  1  0  0  0  0
 16 21  1  0  0  0  0
 16 35  1  0  0  0  0
 17 20  2  0  0  0  0
 17 36  1  0  0  0  0
 18 23  2  0  0  0  0
 18 37  1  0  0  0  0
 19 20  1  0  0  0  0
 19 22  1  0  0  0  0
 20 38  1  0  0  0  0
 21 24  2  0  0  0  0
 22 25  2  0  0  0  0
 22 26  1  0  0  0  0
 23 24  1  0  0  0  0
 23 39  1  0  0  0  0
 24 40  1  0  0  0  0
 25 41  1  0  0  0  0
 26 42  1  0  0  0  0
 27 44  1  0  0  0  0
 27 45  1  0  0  0  0
 27 46  1  0  0  0  0
M  END
> <PUBCHEM_COMPOUND_CID>
54765280

> <PUBCHEM_CONFORMER_RMSD>
0.8

> <PUBCHEM_CONFORMER_DIVERSEORDER>
1
11
57
85
37
23
31
30
14
95
61
82
94
39
9
7
87
83
50
8
84
10
89
13
24
59
67
3
64
97
73
91
25
28
22
46
16
96
47
88
90
60
49
63
62
17
18
66
27
6
55
38
33
20
29
4
15
26
65
42
74
12
53
80
21
93
34
79
86
69
19
52
2
44
51
81
41
35
36
71
72
75
40
70
32
58
68
48
5
56
43
77
54
92
76
78
45

> <PUBCHEM_MMFF94_PARTIAL_CHARGES>
37
1 -0.57
10 -0.24
12 0.11
13 -0.15
14 0.71
16 -0.15
17 -0.15
18 -0.15
19 0.36
2 -0.36
20 -0.15
21 0.08
22 -0.05
23 -0.15
24 -0.15
25 -0.3
26 0.14
27 0.28
29 0.37
3 -0.73
30 0.15
31 0.27
35 0.15
36 0.15
37 0.15
38 0.15
39 0.15
4 0.03
40 0.15
41 0.15
42 0.15
43 0.27
5 -0.57
6 0.3
7 -0.71
8 0.44
9 -0.14

> <PUBCHEM_EFFECTIVE_ROTOR_COUNT>
6

> <PUBCHEM_PHARMACOPHORE_FEATURES>
12
1 1 acceptor
1 2 acceptor
1 3 donor
1 4 cation
1 4 donor
1 5 acceptor
1 6 donor
1 7 acceptor
5 4 10 11 12 13 rings
5 6 7 22 25 26 rings
6 5 11 12 17 19 20 rings
6 9 16 18 21 23 24 rings

> <PUBCHEM_HEAVY_ATOM_COUNT>
27

> <PUBCHEM_ATOM_DEF_STEREO_COUNT>
1

> <PUBCHEM_ATOM_UDEF_STEREO_COUNT>
0

> <PUBCHEM_BOND_DEF_STEREO_COUNT>
0

> <PUBCHEM_BOND_UDEF_STEREO_COUNT>
0

> <PUBCHEM_ISOTOPIC_ATOM_COUNT>
0

> <PUBCHEM_COMPONENT_COUNT>
1

> <PUBCHEM_CACTVS_TAUTO_COUNT>
46

> <PUBCHEM_CONFORMER_ID>
0343A6E000000001

> <PUBCHEM_MMFF94_ENERGY>
61.8811

> <PUBCHEM_FEATURE_SELFOVERLAP>
61.01

> <PUBCHEM_SHAPE_FINGERPRINT>
10 15 16558751251870805385
10280341 67 8140639490351513302
10533779 1 9438530494667813882
10670039 82 12757417316391155110
11408170 132 13624070025525917959
11476731 118 10519988149525268947
11524674 6 18187927322446902515
11761917 142 14691469221895282075
12047536 79 14332574333027528402
125118 31 12966863324989425059
12616971 3 18411694421949720589
12838862 33 16558474103033996609
13533116 47 18409731785442016736
13617811 41 13984659273920916895
13668630 136 17821728325367421954
13673619 4 17749105591159198549
13685833 64 18040713675425992272
13782708 43 17821727269280194683
14118638 360 18040720281476792308
14251764 18 17346314947047206029
14347424 109 17775563148190550128
14461889 52 14117511090641161797
14528608 73 11386363729766561396
14598715 104 13614246928329066187
14767858 380 12901545754303767227
14931854 50 12108082028916683246
15082195 135 12829207767663397096
15131766 46 9943223914926914898
15183329 4 18334018319446783305
15352257 5 17895478124073233915
15510800 12 18187925033234530570
16079462 125 13686301274938817441
16994733 274 11599737155883273535
17844677 252 17168137949067457677
19301679 30 18340489963178141996
1979834 28 16917073231188351070
20397935 70 18411699881512458226
20511986 3 12391510871685334077
20554085 129 14476961160462549847
21130935 74 18271806865079214715
21150785 3 13406795527595203058
21344244 181 17749395870618530034
21365058 113 17385732391120565108
21424621 283 13110702548948374351
21781051 124 16443356381233288291
21792934 111 17059785403746090981
21859007 373 17203050686577557585
220451 1 18130505335621659324
22061861 79 17603580841786856068
2297311 6 16008742516402320365
2303208 19 16877940559872680117
23081809 10 18272370931839872533
23516275 100 9727335927948423970
23522609 53 18126314002061776689
23559900 14 13912890908051109789
23569943 247 18336825291271607003
312425 54 17489577987636334630
3472631 163 7925620125460499250
34797466 226 16588027960721014020
3663271 9 17417802989308250554
3680242 22 18130787867239498014
3886686 26 16694162435503096790
397830 11 13326565319947894813
4073 2 17913203445160209832
445580 126 9583514284017233142
46194498 28 17458061586722593772
5104073 3 17273974830081581363
513202 73 18335421232176243029
54076057 127 17969514864810988036
59755656 215 16225759727477388153
70634741 139 9367045767683178117
86090 222 18187370883416163994
9831232 110 17821725009595056202

> <PUBCHEM_SHAPE_MULTIPOLES>
519
21.83
2.31
1.73
17.9
1.14
-0.01
13.77
6.82
-6.28
-0.53
0.13
-0.19
-0.25

> <PUBCHEM_SHAPE_SELFOVERLAP>
1147.503

> <PUBCHEM_SHAPE_VOLUME>
279.6

> <PUBCHEM_COORDINATE_TYPE>
2
5
10

$$$$
57394246
  -OEChem-05102415093D

 46 49  0     1  0  0  0  0  0999 V2000
   -0.8452   -2.9369   -0.0142 O   0  0  0  0  0  0  0  0  0  0  0  0
   -6.1187    2.3834    0.7284 O   0  0  0  0  0  0  0  0  0  0  0  0
   -2.1063   -1.0283    0.3651 N   0  0  0  0  0  0  0  0  0  0  0  0
    1.5696   -1.4284   -0.0248 N   0  0  0  0  0  0  0  0  0  0  0  0
    3.8272   -0.5919   -0.1036 N   0  0  0  0  0  0  0  0  0  0  0  0
    7.9137   -0.4563   -0.4524 N   0  0  0  0  0  0  0  0  0  0  0  0
    8.1840    0.8492   -0.2822 N   0  0  0  0  0  0  0  0  0  0  0  0
   -3.3940   -1.6832    0.4048 C   0  0  2  0  0  0  0  0  0  0  0  0
   -4.4876   -0.7790   -0.1217 C   0  0  0  0  0  0  0  0  0  0  0  0
    0.3160   -0.9078    0.1660 C   0  0  0  0  0  0  0  0  0  0  0  0
    1.8239    0.7690    0.2814 C   0  0  0  0  0  0  0  0  0  0  0  0
    2.4992   -0.4241    0.0417 C   0  0  0  0  0  0  0  0  0  0  0  0
    0.4420    0.4510    0.3590 C   0  0  0  0  0  0  0  0  0  0  0  0
   -0.8784   -1.6919    0.1553 C   0  0  0  0  0  0  0  0  0  0  0  0
   -3.6911   -2.2015    1.8105 C   0  0  0  0  0  0  0  0  0  0  0  0
   -4.8027    0.4002    0.5534 C   0  0  0  0  0  0  0  0  0  0  0  0
    2.5949    1.9378    0.3864 C   0  0  0  0  0  0  0  0  0  0  0  0
   -5.1811   -1.1253   -1.2816 C   0  0  0  0  0  0  0  0  0  0  0  0
    4.5196    0.5656    0.0069 C   0  0  0  0  0  0  0  0  0  0  0  0
    3.9764    1.8213    0.2437 C   0  0  0  0  0  0  0  0  0  0  0  0
   -5.8111    1.2334    0.0687 C   0  0  0  0  0  0  0  0  0  0  0  0
    5.9426    0.4323   -0.1419 C   0  0  0  0  0  0  0  0  0  0  0  0
   -6.1895   -0.2924   -1.7661 C   0  0  0  0  0  0  0  0  0  0  0  0
   -6.5044    0.8871   -1.0912 C   0  0  0  0  0  0  0  0  0  0  0  0
    6.5857   -0.7584   -0.3776 C   0  0  0  0  0  0  0  0  0  0  0  0
    6.9761    1.3868   -0.0929 C   0  0  0  0  0  0  0  0  0  0  0  0
   -7.1610    3.1881    0.1787 C   0  0  0  0  0  0  0  0  0  0  0  0
   -3.3252   -2.5631   -0.2478 H   0  0  0  0  0  0  0  0  0  0  0  0
   -2.0935   -0.0286    0.5381 H   0  0  0  0  0  0  0  0  0  0  0  0
   -0.3563    1.1585    0.5369 H   0  0  0  0  0  0  0  0  0  0  0  0
    1.7798   -2.4031   -0.1900 H   0  0  0  0  0  0  0  0  0  0  0  0
   -2.9323   -2.9268    2.1250 H   0  0  0  0  0  0  0  0  0  0  0  0
   -4.6674   -2.6971    1.8499 H   0  0  0  0  0  0  0  0  0  0  0  0
   -3.6916   -1.3961    2.5534 H   0  0  0  0  0  0  0  0  0  0  0  0
   -4.2682    0.6842    1.4564 H   0  0  0  0  0  0  0  0  0  0  0  0
    2.1364    2.9036    0.5723 H   0  0  0  0  0  0  0  0  0  0  0  0
   -4.9476   -2.0404   -1.8191 H   0  0  0  0  0  0  0  0  0  0  0  0
    4.5827    2.7180    0.3228 H   0  0  0  0  0  0  0  0  0  0  0  0
   -6.7289   -0.5629   -2.6692 H   0  0  0  0  0  0  0  0  0  0  0  0
   -7.2981    1.4875   -1.5225 H   0  0  0  0  0  0  0  0  0  0  0  0
    6.2402   -1.7760   -0.4981 H   0  0  0  0  0  0  0  0  0  0  0  0
    6.9155    2.4533    0.0718 H   0  0  0  0  0  0  0  0  0  0  0  0
    8.6868   -1.0889   -0.6165 H   0  0  0  0  0  0  0  0  0  0  0  0
   -7.2723    4.0615    0.8296 H   0  0  0  0  0  0  0  0  0  0  0  0
   -8.1212    2.6612    0.1836 H   0  0  0  0  0  0  0  0  0  0  0  0
   -6.8979    3.5625   -0.8164 H   0  0  0  0  0  0  0  0  0  0  0  0
  1 14  2  0  0  0  0
  2 21  1  0  0  0  0
  2 27  1  0  0  0  0
  3  8  1  0  0  0  0
  3 14  1  0  0  0  0
  3 29  1  0  0  0  0
  4 10  1  0  0  0  0
  4 12  1  0  0  0  0
  4 31  1  0  0  0  0
  5 12  1  0  0  0  0
  5 19  2  0  0  0  0
  6  7  1  0  0  0  0
  6 25  1  0  0  0  0
  6 43  1  0  0  0  0
  7 26  2  0  0  0  0
  8  9  1  0  0  0  0
  8 15  1  0  0  0  0
  8 28  1  0  0  0  0
  9 16  2  0  0  0  0
  9 18  1  0  0  0  0
 10 13  2  0  0  0  0
 10 14  1  0  0  0  0
 11 12  2  0  0  0  0
 11 13  1  0  0  0  0
 11 17  1  0  0  0  0
 13 30  1  0  0  0  0
 15 32  1  0  0  0  0
 15 33  1  0  0  0  0
 15 34  1  0  0  0  0
 16 21  1  0  0  0  0
 16 35  1  0  0  0  0
 17 20  2  0  0  0  0
 17 36  1  0  0  0  0
 18 23  2  0  0  0  0
 18 37  1  0  0  0  0
 19 20  1  0  0  0  0
 19 22  1  0  0  0  0
 20 38  1  0  0  0  0
 21 24  2  0  0  0  0
 22 25  2  0  0  0  0
 22 26  1  0  0  0  0
 23 24  1  0  0  0  0
 23 39  1  0  0  0  0
 24 40  1  0  0  0  0
 25 41  1  0  0  0  0
 26 42  1  0  0  0  0
 27 44  1  0  0  0  0
 27 45  1  0  0  0  0
 27 46  1  0  0  0  0
M  END
> <PUBCHEM_COMPOUND_CID>
57394246

> <PUBCHEM_CONFORMER_RMSD>
0.8

> <PUBCHEM_CONFORMER_DIVERSEORDER>
1
48
61
22
30
75
14
59
29
10
27
19
39
23
66
78
88
60
16
89
79
26
5
51
15
56
21
47
85
38
83
2
6
3
63
28
13
90
81
67
82
8
11
70
34
77
31
42
57
4
40
80
17
41
52
87
72
44
18
86
20
36
12
84
53
71
24
58
9
65
33
76
69
68
45
46
62
35
25
32
7
74
49
43
50
64
54
73
55
37

> <PUBCHEM_MMFF94_PARTIAL_CHARGES>
37
1 -0.57
10 -0.24
12 0.11
13 -0.15
14 0.71
16 -0.15
17 -0.15
18 -0.15
19 0.36
2 -0.36
20 -0.15
21 0.08
22 -0.05
23 -0.15
24 -0.15
25 -0.3
26 0.14
27 0.28
29 0.37
3 -0.73
30 0.15
31 0.27
35 0.15
36 0.15
37 0.15
38 0.15
39 0.15
4 0.03
40 0.15
41 0.15
42 0.15
43 0.27
5 -0.57
6 0.3
7 -0.71
8 0.44
9 -0.14

> <PUBCHEM_EFFECTIVE_ROTOR_COUNT>
6

> <PUBCHEM_PHARMACOPHORE_FEATURES>
12
1 1 acceptor
1 2 acceptor
1 3 donor
1 4 cation
1 4 donor
1 5 acceptor
1 6 donor
1 7 acceptor
5 4 10 11 12 13 rings
5 6 7 22 25 26 rings
6 5 11 12 17 19 20 rings
6 9 16 18 21 23 24 rings

> <PUBCHEM_HEAVY_ATOM_COUNT>
27

> <PUBCHEM_ATOM_DEF_STEREO_COUNT>
1

> <PUBCHEM_ATOM_UDEF_STEREO_COUNT>
0

> <PUBCHEM_BOND_DEF_STEREO_COUNT>
0

> <PUBCHEM_BOND_UDEF_STEREO_COUNT>
0

> <PUBCHEM_ISOTOPIC_ATOM_COUNT>
0

> <PUBCHEM_COMPONENT_COUNT>
1

> <PUBCHEM_CACTVS_TAUTO_COUNT>
46

> <PUBCHEM_CONFORMER_ID>
036BC44600000001

> <PUBCHEM_MMFF94_ENERGY>
61.7062

> <PUBCHEM_FEATURE_SELFOVERLAP>
61.01

> <PUBCHEM_SHAPE_FINGERPRINT>
10066227 112 18041277763988975916
10670039 82 18411975854641733753
10674148 151 18040432218721005512
10835480 77 18267582589066625432
11089746 13 18342453772338472138
11211813 128 8286198362393840464
11273773 42 18343016650623134989
11315181 36 17632861940752907161
11408170 132 18409458003654210276
12082328 90 18273493486041135687
12373685 5 14116972201152456903
125118 31 18335140947274868244
1361 4 9655306925317134036
14294032 229 17968941869087772372
14856354 85 15574716936556347251
15064981 113 17058921144810376845
15142383 8 18114177554290787644
15183329 4 18408879637891368978
15439362 3 18270120081330510807
15510800 12 11599421626105391133
15716309 27 9727637215212118175
1577012 14 18411132503268400347
16087824 20 18337956688367361644
17093844 174 18041559242775350691
17780758 139 11746932080381019727
190975 80 8718824288773768988
21033648 144 18186794752471426335
21033648 29 18339071708947087353
21054139 6 12319742457647271804
21095123 145 13984955029690137160
21298829 104 18411702062654484429
21521721 280 12396303682099800614
21585482 111 18190740822574159333
21756936 100 18335424556971137995
23389318 12 11239702089951117624
23559900 14 18271240655255697888
23576562 1 18196085766668380740
2838139 119 18342174492586071341
335352 9 18411982494708172214
4073 2 18113623425594044554
4144715 1 17825114963273569688
445580 204 18342174436957432785
4516262 110 18190736441854255349
4938544 92 11891597007001756591
5104073 3 17894630332173565947
59682541 35 9079110068851938902
5969126 39 13110967504937598411
59755656 215 18409729552264595350
6009941 240 17894916252198607106
6328613 192 18261114131668224508
6371380 46 18340200890979246114
9980921 7 18041838412779580077

> <PUBCHEM_SHAPE_MULTIPOLES>
519
23.73
2.6
1.03
14.96
0.58
-0.08
11.84
-5.07
-4.15
0.62
-1.87
-0.29
0.12

> <PUBCHEM_SHAPE_SELFOVERLAP>
1147.47

> <PUBCHEM_SHAPE_VOLUME>
279.6

> <PUBCHEM_COORDINATE_TYPE>
2
5
10

$$$$
57394247
  -OEChem-05102415093D

 42 45  0     0  0  0  0  0  0999 V2000
    0.6331   -2.6458   -0.3534 S   0  0  0  0  0  0  0  0  0  0  0  0
   -6.7951   -0.4049   -1.2841 O   0  0  0  0  0  0  0  0  0  0  0  0
   -2.1489   -2.2938    0.6611 O   0  0  0  0  0  0  0  0  0  0  0  0
   -1.8884   -0.1766    1.5701 N   0  0  0  0  0  0  0  0  0  0  0  0
    0.7839   -0.3049    0.7193 N   0  0  0  0  0  0  0  0  0  0  0  0
    5.4607    2.0297   -0.2130 N   0  0  0  0  0  0  0  0  0  0  0  0
    6.6536    2.6457   -0.1526 N   0  0  0  0  0  0  0  0  0  0  0  0
    2.0407   -0.5944    0.2081 C   0  0  0  0  0  0  0  0  0  0  0  0
    4.3835   -0.1873   -0.2928 C   0  0  0  0  0  0  0  0  0  0  0  0
    2.1551   -1.8385   -0.4197 C   0  0  0  0  0  0  0  0  0  0  0  0
    3.1774    0.2406    0.2695 C   0  0  0  0  0  0  0  0  0  0  0  0
   -3.2405   -0.0374    2.0615 C   0  0  0  0  0  0  0  0  0  0  0  0
   -4.1484    0.5842    1.0399 C   0  0  0  0  0  0  0  0  0  0  0  0
    4.4730   -1.4290   -0.9122 C   0  0  0  0  0  0  0  0  0  0  0  0
    3.3634   -2.2748   -0.9866 C   0  0  0  0  0  0  0  0  0  0  0  0
    5.5437    0.6684   -0.2305 C   0  0  0  0  0  0  0  0  0  0  0  0
   -0.0290   -1.3077    0.4815 C   0  0  0  0  0  0  0  0  0  0  0  0
   -1.3950   -1.3100    0.8841 C   0  0  0  0  0  0  0  0  0  0  0  0
   -5.0617   -0.2082    0.3445 C   0  0  0  0  0  0  0  0  0  0  0  0
   -4.0780    1.9540    0.7857 C   0  0  0  0  0  0  0  0  0  0  0  0
    6.8841    0.3733   -0.1785 C   0  0  0  0  0  0  0  0  0  0  0  0
   -5.9049    0.3690   -0.6050 C   0  0  0  0  0  0  0  0  0  0  0  0
   -4.9210    2.5312   -0.1641 C   0  0  0  0  0  0  0  0  0  0  0  0
   -5.8346    1.7388   -0.8593 C   0  0  0  0  0  0  0  0  0  0  0  0
    7.5192    1.6288   -0.1317 C   0  0  0  0  0  0  0  0  0  0  0  0
   -7.6261    0.2496   -2.2417 C   0  0  0  0  0  0  0  0  0  0  0  0
    3.0871    1.2019    0.7681 H   0  0  0  0  0  0  0  0  0  0  0  0
   -3.2048    0.5874    2.9611 H   0  0  0  0  0  0  0  0  0  0  0  0
   -3.6122   -1.0215    2.3689 H   0  0  0  0  0  0  0  0  0  0  0  0
    5.4043   -1.7702   -1.3596 H   0  0  0  0  0  0  0  0  0  0  0  0
    3.4400   -3.2424   -1.4731 H   0  0  0  0  0  0  0  0  0  0  0  0
   -1.2531    0.6012    1.7261 H   0  0  0  0  0  0  0  0  0  0  0  0
   -5.1215   -1.2769    0.5355 H   0  0  0  0  0  0  0  0  0  0  0  0
   -3.3702    2.5814    1.3211 H   0  0  0  0  0  0  0  0  0  0  0  0
    7.3467   -0.6033   -0.1704 H   0  0  0  0  0  0  0  0  0  0  0  0
    4.6315    2.6099   -0.2485 H   0  0  0  0  0  0  0  0  0  0  0  0
   -4.8652    3.5979   -0.3615 H   0  0  0  0  0  0  0  0  0  0  0  0
   -6.4590    2.2517   -1.5828 H   0  0  0  0  0  0  0  0  0  0  0  0
    8.5768    1.8448   -0.0824 H   0  0  0  0  0  0  0  0  0  0  0  0
   -8.2835    0.9862   -1.7674 H   0  0  0  0  0  0  0  0  0  0  0  0
   -7.0364    0.6832   -3.0565 H   0  0  0  0  0  0  0  0  0  0  0  0
   -8.2714   -0.5153   -2.6861 H   0  0  0  0  0  0  0  0  0  0  0  0
  1 10  1  0  0  0  0
  1 17  1  0  0  0  0
  2 22  1  0  0  0  0
  2 26  1  0  0  0  0
  3 18  2  0  0  0  0
  4 12  1  0  0  0  0
  4 18  1  0  0  0  0
  4 32  1  0  0  0  0
  5  8  1  0  0  0  0
  5 17  2  0  0  0  0
  6  7  1  0  0  0  0
  6 16  1  0  0  0  0
  6 36  1  0  0  0  0
  7 25  2  0  0  0  0
  8 10  2  0  0  0  0
  8 11  1  0  0  0  0
  9 11  2  0  0  0  0
  9 14  1  0  0  0  0
  9 16  1  0  0  0  0
 10 15  1  0  0  0  0
 11 27  1  0  0  0  0
 12 13  1  0  0  0  0
 12 28  1  0  0  0  0
 12 29  1  0  0  0  0
 13 19  2  0  0  0  0
 13 20  1  0  0  0  0
 14 15  2  0  0  0  0
 14 30  1  0  0  0  0
 15 31  1  0  0  0  0
 16 21  2  0  0  0  0
 17 18  1  0  0  0  0
 19 22  1  0  0  0  0
 19 33  1  0  0  0  0
 20 23  2  0  0  0  0
 20 34  1  0  0  0  0
 21 25  1  0  0  0  0
 21 35  1  0  0  0  0
 22 24  2  0  0  0  0
 23 24  1  0  0  0  0
 23 37  1  0  0  0  0
 24 38  1  0  0  0  0
 25 39  1  0  0  0  0
 26 40  1  0  0  0  0
 26 41  1  0  0  0  0
 26 42  1  0  0  0  0
M  END
> <PUBCHEM_COMPOUND_CID>
57394247

> <PUBCHEM_CONFORMER_RMSD>
0.8

> <PUBCHEM_CONFORMER_DIVERSEORDER>
1
124
7
128
105
117
144
10
68
79
19
56
119
136
142
14
137
113
91
66
33
40
121
111
34
53
145
13
9
102
17
23
103
141
148
107
12
96
63
70
48
30
22
72
130
5
140
47
38
28
36
115
85
131
120
8
37
45
88
98
125
81
20
69
46
104
134
147
42
76
6
84
92
11
52
100
109
123
139
54
89
62
87
82
29
65
122
50
95
4
71
16
26
138
90
83
32
51
21
73
143
127
27
126
3
15
146
49
59
135
94
86
58
64
116
112
25
60
132
24
129
41
106
118
80
77
57
108
2
97
93
44
61
74
133
31
43
55
67
18
75
78
39
110
99
35
114
101

> <PUBCHEM_MMFF94_PARTIAL_CHARGES>
37
1 -0.08
10 0.04
11 -0.15
12 0.44
13 -0.14
14 -0.15
15 -0.15
16 -0.2
17 0.29
18 0.71
19 -0.15
2 -0.36
20 -0.15
21 -0.15
22 0.08
23 -0.15
24 -0.15
25 0.14
26 0.28
27 0.15
3 -0.57
30 0.15
31 0.15
32 0.37
33 0.15
34 0.15
35 0.15
36 0.27
37 0.15
38 0.15
39 0.15
4 -0.73
5 -0.57
6 0.3
7 -0.71
8 0.23
9 0.05

> <PUBCHEM_EFFECTIVE_ROTOR_COUNT>
6

> <PUBCHEM_PHARMACOPHORE_FEATURES>
10
1 2 acceptor
1 3 acceptor
1 4 donor
1 5 acceptor
1 6 donor
1 7 acceptor
5 1 5 8 10 17 rings
5 6 7 16 21 25 rings
6 13 19 20 22 23 24 rings
6 8 9 10 11 14 15 rings

> <PUBCHEM_HEAVY_ATOM_COUNT>
26

> <PUBCHEM_ATOM_DEF_STEREO_COUNT>
0

> <PUBCHEM_ATOM_UDEF_STEREO_COUNT>
0

> <PUBCHEM_BOND_DEF_STEREO_COUNT>
0

> <PUBCHEM_BOND_UDEF_STEREO_COUNT>
0

> <PUBCHEM_ISOTOPIC_ATOM_COUNT>
0

> <PUBCHEM_COMPONENT_COUNT>
1

> <PUBCHEM_CACTVS_TAUTO_COUNT>
4

> <PUBCHEM_CONFORMER_ID>
036BC44700000001

> <PUBCHEM_MMFF94_ENERGY>
59.5968

> <PUBCHEM_FEATURE_SELFOVERLAP>
50.819

> <PUBCHEM_SHAPE_FINGERPRINT>
10554248 39 18272657818770820822
10595046 47 18202000972117605659
10811444 77 18261394485363520308
11089746 13 18262241006253217858
11103572 155 11527133116791425069
11387372 6 11671768400381367061
11961588 58 18408601457276244819
12107183 9 11241972560251401661
12422481 6 13118002201553283434
12838862 33 18272646897064944128
13668630 136 14405186183398045349
13673619 4 12319734765519184875
13685833 64 9439406813812608074
13690498 29 17345180302608665903
13782708 43 11455899018713995260
13941219 33 8790884082114618161
14123256 34 13110959838399472455
14251732 14 15698280001714050947
14251764 30 10592041349615363002
14347424 109 17894904119575021736
14420673 8 10159695803158676909
14428016 545 10809613801911005983
14528608 73 18341896242950484363
14739800 52 17822004268500264752
14767858 380 17704354372433312499
15064986 266 18272378530243517907
15064986 96 11602817957341729889
15082195 135 17917708032978049066
15142383 8 16225764117208283796
15183329 4 17275103929296110287
15238133 3 15864362341238709422
15352257 5 10807932669737908988
15475509 84 13262395548976325230
15961568 22 18333452023403271477
17780758 139 10953459631196912183
18335252 114 18342460349051935836
18608769 82 18339650065592375251
195137 95 16443613624263016573
20058555 10 18337115656666875044
20281389 69 18261118478185274888
20621476 21 12247670587259481733
20715895 44 18411143554636198584
21033648 144 18341344326725978651
21033648 29 17895208666340748587
21130935 74 7997672195596023573
21150785 3 17561363993331985004
21859007 373 17895193234723772694
22765269 38 18334014986246232506
23081809 10 16988571143294959906
23516275 100 18334573573041773300
23729398 52 8430016661652504366
2748736 6 18409449180889011264
2838139 119 18261958419011359089
3103668 31 17271716480085055654
335352 9 18271816710056490806
393628 194 18334023791167599461
439807 62 10519715475125353448
465052 167 7853574596228344400
5283384 27 18187079572388546116
5470011 282 18273208678407121887
6058803 2 17128193636512682691
9980921 7 18263924526549723476
999808 66 10159703490527683720

> <PUBCHEM_SHAPE_MULTIPOLES>
507.25
21.84
2.71
1.39
0.03
0.15
-0.03
14.87
-9.13
2.1
-0.31
-2.91
-0.13
0.51

> <PUBCHEM_SHAPE_SELFOVERLAP>
1106.883

> <PUBCHEM_SHAPE_VOLUME>
278.2

> <PUBCHEM_COORDINATE_TYPE>
2
5
10

$$$$
71655603
  -OEChem-05102415093D

 64 67  0     1  0  0  0  0  0999 V2000
    2.2029    1.7534   -0.6176 O   0  0  0  0  0  0  0  0  0  0  0  0
   -1.8077   -0.9699   -2.0743 O   0  0  0  0  0  0  0  0  0  0  0  0
   -4.8095   -3.2652    1.2841 O   0  0  0  0  0  0  0  0  0  0  0  0
    2.3340    4.6292    1.2840 N   0  0  1  0  0  0  0  0  0  0  0  0
   -0.2689    0.5472   -1.2006 N   0  0  0  0  0  0  0  0  0  0  0  0
   -2.5995    1.0060   -1.1643 N   0  0  0  0  0  0  0  0  0  0  0  0
    6.1039   -3.2168    1.0053 N   0  0  0  0  0  0  0  0  0  0  0  0
    5.7349   -4.2792    0.2694 N   0  0  0  0  0  0  0  0  0  0  0  0
    2.5991    2.3895    0.5895 C   0  0  1  0  0  0  0  0  0  0  0  0
    3.8909    3.1749    0.3761 C   0  0  0  0  0  0  0  0  0  0  0  0
    1.5508    3.4288    0.9827 C   0  0  0  0  0  0  0  0  0  0  0  0
    3.4388    4.6257    0.3266 C   0  0  0  0  0  0  0  0  0  0  0  0
    1.5394    5.8462    1.2145 C   0  0  0  0  0  0  0  0  0  0  0  0
    2.0718    0.3891   -0.5838 C   0  0  0  0  0  0  0  0  0  0  0  0
    0.8506   -0.2205   -0.8715 C   0  0  0  0  0  0  0  0  0  0  0  0
    3.1809   -0.3912   -0.2571 C   0  0  0  0  0  0  0  0  0  0  0  0
    3.0689   -1.7810   -0.2182 C   0  0  0  0  0  0  0  0  0  0  0  0
    0.7386   -1.6103   -0.8325 C   0  0  0  0  0  0  0  0  0  0  0  0
    1.8479   -2.3907   -0.5060 C   0  0  0  0  0  0  0  0  0  0  0  0
   -1.5691    0.1039   -1.5172 C   0  0  0  0  0  0  0  0  0  0  0  0
    4.2110   -2.5844    0.1174 C   0  0  0  0  0  0  0  0  0  0  0  0
   -4.0033    0.7237   -1.4361 C   0  0  0  0  0  0  0  0  0  0  0  0
   -2.3242    2.2803   -0.5039 C   0  0  0  0  0  0  0  0  0  0  0  0
   -4.6729    0.0394   -0.2795 C   0  0  0  0  0  0  0  0  0  0  0  0
    5.2253   -2.1750    0.9484 C   0  0  0  0  0  0  0  0  0  0  0  0
    4.5780   -3.8869   -0.2706 C   0  0  0  0  0  0  0  0  0  0  0  0
   -2.1023    3.3900   -1.5106 C   0  0  0  0  0  0  0  0  0  0  0  0
   -4.4281   -1.3114   -0.0324 C   0  0  0  0  0  0  0  0  0  0  0  0
   -5.5400    0.7537    0.5473 C   0  0  0  0  0  0  0  0  0  0  0  0
   -5.0503   -1.9478    1.0417 C   0  0  0  0  0  0  0  0  0  0  0  0
   -6.1625    0.1173    1.6212 C   0  0  0  0  0  0  0  0  0  0  0  0
   -5.9175   -1.2335    1.8684 C   0  0  0  0  0  0  0  0  0  0  0  0
   -3.9122   -3.9346    0.3994 C   0  0  0  0  0  0  0  0  0  0  0  0
    2.7365    1.6730    1.4109 H   0  0  0  0  0  0  0  0  0  0  0  0
    4.4290    2.8862   -0.5321 H   0  0  0  0  0  0  0  0  0  0  0  0
    4.5572    3.0282    1.2354 H   0  0  0  0  0  0  0  0  0  0  0  0
    0.8411    3.5954    0.1621 H   0  0  0  0  0  0  0  0  0  0  0  0
    0.9826    3.1051    1.8612 H   0  0  0  0  0  0  0  0  0  0  0  0
    4.2431    5.3079    0.6189 H   0  0  0  0  0  0  0  0  0  0  0  0
    3.1038    4.8836   -0.6861 H   0  0  0  0  0  0  0  0  0  0  0  0
    0.7255    5.8126    1.9469 H   0  0  0  0  0  0  0  0  0  0  0  0
    1.1020    6.0043    0.2221 H   0  0  0  0  0  0  0  0  0  0  0  0
    2.1551    6.7182    1.4605 H   0  0  0  0  0  0  0  0  0  0  0  0
    4.1306    0.1008   -0.0600 H   0  0  0  0  0  0  0  0  0  0  0  0
   -0.1872   -2.1413   -1.0166 H   0  0  0  0  0  0  0  0  0  0  0  0
   -0.1101    1.5491   -1.1660 H   0  0  0  0  0  0  0  0  0  0  0  0
    1.7319   -3.4713   -0.4709 H   0  0  0  0  0  0  0  0  0  0  0  0
   -4.0733    0.0740   -2.3174 H   0  0  0  0  0  0  0  0  0  0  0  0
   -4.5166    1.6543   -1.7061 H   0  0  0  0  0  0  0  0  0  0  0  0
   -3.1710    2.5367    0.1425 H   0  0  0  0  0  0  0  0  0  0  0  0
   -1.4622    2.1918    0.1643 H   0  0  0  0  0  0  0  0  0  0  0  0
    5.4076   -1.2654    1.5040 H   0  0  0  0  0  0  0  0  0  0  0  0
    4.0578   -4.5716   -0.9257 H   0  0  0  0  0  0  0  0  0  0  0  0
   -1.2639    3.1702   -2.1788 H   0  0  0  0  0  0  0  0  0  0  0  0
   -2.9890    3.5415   -2.1347 H   0  0  0  0  0  0  0  0  0  0  0  0
   -1.8874    4.3315   -0.9955 H   0  0  0  0  0  0  0  0  0  0  0  0
   -3.7605   -1.8284   -0.7103 H   0  0  0  0  0  0  0  0  0  0  0  0
   -5.7398    1.8065    0.3664 H   0  0  0  0  0  0  0  0  0  0  0  0
    6.9706   -3.2712    1.5256 H   0  0  0  0  0  0  0  0  0  0  0  0
   -6.8376    0.6734    2.2650 H   0  0  0  0  0  0  0  0  0  0  0  0
   -6.4048   -1.7238    2.7067 H   0  0  0  0  0  0  0  0  0  0  0  0
   -3.8343   -4.9715    0.7427 H   0  0  0  0  0  0  0  0  0  0  0  0
   -2.9049   -3.5068    0.4467 H   0  0  0  0  0  0  0  0  0  0  0  0
   -4.3035   -3.9660   -0.6232 H   0  0  0  0  0  0  0  0  0  0  0  0
  1  9  1  0  0  0  0
  1 14  1  0  0  0  0
  2 20  2  0  0  0  0
  3 30  1  0  0  0  0
  3 33  1  0  0  0  0
  4 11  1  0  0  0  0
  4 12  1  0  0  0  0
  4 13  1  0  0  0  0
  5 15  1  0  0  0  0
  5 20  1  0  0  0  0
  5 46  1  0  0  0  0
  6 20  1  0  0  0  0
  6 22  1  0  0  0  0
  6 23  1  0  0  0  0
  7  8  1  0  0  0  0
  7 25  1  0  0  0  0
  7 59  1  0  0  0  0
  8 26  2  0  0  0  0
  9 10  1  0  0  0  0
  9 11  1  0  0  0  0
  9 34  1  0  0  0  0
 10 12  1  0  0  0  0
 10 35  1  0  0  0  0
 10 36  1  0  0  0  0
 11 37  1  0  0  0  0
 11 38  1  0  0  0  0
 12 39  1  0  0  0  0
 12 40  1  0  0  0  0
 13 41  1  0  0  0  0
 13 42  1  0  0  0  0
 13 43  1  0  0  0  0
 14 15  2  0  0  0  0
 14 16  1  0  0  0  0
 15 18  1  0  0  0  0
 16 17  2  0  0  0  0
 16 44  1  0  0  0  0
 17 19  1  0  0  0  0
 17 21  1  0  0  0  0
 18 19  2  0  0  0  0
 18 45  1  0  0  0  0
 19 47  1  0  0  0  0
 21 25  2  0  0  0  0
 21 26  1  0  0  0  0
 22 24  1  0  0  0  0
 22 48  1  0  0  0  0
 22 49  1  0  0  0  0
 23 27  1  0  0  0  0
 23 50  1  0  0  0  0
 23 51  1  0  0  0  0
 24 28  2  0  0  0  0
 24 29  1  0  0  0  0
 25 52  1  0  0  0  0
 26 53  1  0  0  0  0
 27 54  1  0  0  0  0
 27 55  1  0  0  0  0
 27 56  1  0  0  0  0
 28 30  1  0  0  0  0
 28 57  1  0  0  0  0
 29 31  2  0  0  0  0
 29 58  1  0  0  0  0
 30 32  2  0  0  0  0
 31 32  1  0  0  0  0
 31 60  1  0  0  0  0
 32 61  1  0  0  0  0
 33 62  1  0  0  0  0
 33 63  1  0  0  0  0
 33 64  1  0  0  0  0
M  END
> <PUBCHEM_COMPOUND_CID>
71655603

> <PUBCHEM_CONFORMER_RMSD>
1

> <PUBCHEM_CONFORMER_DIVERSEORDER>
1
144
225
200
27
211
313
134
127
212
198
274
106
151
328
309
269
50
133
288
120
94
282
283
230
220
147
316
332
132
263
264
229
108
318
130
123
196
71
254
30
327
268
226
271
325
56
175
90
107
158
205
89
126
233
279
310
312
265
260
149
125
165
204
69
278
121
290
159
64
91
186
246
167
249
96
44
221
257
77
227
179
115
286
170
43
183
250
156
308
152
243
38
237
234
41
114
101
16
329
55
193
218
197
145
276
181
287
177
296
63
150
52
270
304
139
284
111
97
223
116
137
275
119
66
148
37
22
311
252
187
289
285
277
163
294
324
192
143
258
191
201
280
86
182
333
228
298
155
153
42
317
161
46
49
262
113
76
261
78
207
67
138
331
84
62
29
295
291
68
122
73
28
131
305
11
176
245
40
231
172
208
199
54
306
35
58
168
238
206
124
129
315
184
135
255
292
240
112
15
141
320
100
244
321
299
281
215
241
253
99
307
235
224
173
51
330
33
154
303
213
239
26
300
157
48
142
209
273
25
178
88
2
162
293
266
32
136
164
319
19
53
81
103
109
267
117
322
188
242
248
210
3
20
39
87
104
6
92
82
118
140
146
166
216
189
297
105
47
13
256
203
236
195
232
102
174
160
217
169
45
326
80
95
314
180
83
5
75
17
10
36
302
190
7
72
31
98
60
259
8
214
194
301
79
251
128
14
185
70
110
59
18
85
202
93
171
21
222
247
219
74
4
65
12
57
61
24
323
23
34
272
9

> <PUBCHEM_MMFF94_PARTIAL_CHARGES>
42
1 -0.36
11 0.27
12 0.27
13 0.27
14 0.08
15 0.12
16 -0.15
17 0.05
18 -0.15
19 -0.15
2 -0.57
20 0.69
21 -0.05
22 0.44
23 0.3
24 -0.14
25 -0.3
26 0.14
28 -0.15
29 -0.15
3 -0.36
30 0.08
31 -0.15
32 -0.15
33 0.28
4 -0.81
44 0.15
45 0.15
46 0.37
47 0.15
5 -0.55
52 0.15
53 0.15
57 0.15
58 0.15
59 0.27
6 -0.66
60 0.15
61 0.15
7 0.3
8 -0.71
9 0.28

> <PUBCHEM_EFFECTIVE_ROTOR_COUNT>
11

> <PUBCHEM_PHARMACOPHORE_FEATURES>
11
1 1 acceptor
1 2 acceptor
1 3 acceptor
1 4 cation
1 5 donor
1 7 donor
1 8 acceptor
5 4 9 10 11 12 rings
5 7 8 21 25 26 rings
6 14 15 16 17 18 19 rings
6 24 28 29 30 31 32 rings

> <PUBCHEM_HEAVY_ATOM_COUNT>
33

> <PUBCHEM_ATOM_DEF_STEREO_COUNT>
1

> <PUBCHEM_ATOM_UDEF_STEREO_COUNT>
0

> <PUBCHEM_BOND_DEF_STEREO_COUNT>
0

> <PUBCHEM_BOND_UDEF_STEREO_COUNT>
0

> <PUBCHEM_ISOTOPIC_ATOM_COUNT>
0

> <PUBCHEM_COMPONENT_COUNT>
1

> <PUBCHEM_CACTVS_TAUTO_COUNT>
2

> <PUBCHEM_CONFORMER_ID>
044560B300000001

> <PUBCHEM_MMFF94_ENERGY>
102.0685

> <PUBCHEM_FEATURE_SELFOVERLAP>
55.823

> <PUBCHEM_SHAPE_FINGERPRINT>
10074138 170 17330817038548552408
11399510 152 18120956133586341331
12293681 4 17978510836757031320
12342043 65 18113342994457481431
13590594 115 18198334066400502792
13782708 43 17894633612790146546
140371 6 17836927794275267036
14444916 359 18122344842626979732
14790565 3 17692533724971983813
14849402 71 18412266177045254840
14950920 106 18342748416434005635
14955137 171 18341046299219713374
15475509 84 18269845228554963065
15684970 41 18119778410251138058
16126227 98 17404024111363734848
18393751 57 17402044995086245465
19319366 153 17913204548824938624
19611394 137 18335699421724720026
21796203 349 18269854067734606674
21927370 108 18196934367235502522
23559900 14 18113054935348764525
2747138 104 18268421332040069626
3552219 110 18189909617541866638
4015057 19 18268691875987161701
6371380 46 18118397351016958549
6703917 75 17615983530971157852
8863177 126 18260552207811391350

> <PUBCHEM_SHAPE_MULTIPOLES>
636.61
14.56
7.42
1.55
9.27
6.22
0.08
-13.25
-6.83
-11.58
-2.92
1.68
0.36
2.2

> <PUBCHEM_SHAPE_SELFOVERLAP>
1361.822

> <PUBCHEM_SHAPE_VOLUME>
356.8

> <PUBCHEM_COORDINATE_TYPE>
2
5
10

$$$$
68517775
  -OEChem-05102415093D

 71 73  0     0  0  0  0  0  0999 V2000
    2.1101    1.8668   -0.6427 O   0  0  0  0  0  0  0  0  0  0  0  0
   -1.2905   -1.6117   -2.0297 O   0  0  0  0  0  0  0  0  0  0  0  0
   -3.6516   -4.4898    1.3910 O   0  0  0  0  0  0  0  0  0  0  0  0
   -2.4466    0.1544   -1.0793 N   0  0  0  0  0  0  0  0  0  0  0  0
   -2.4672    3.8787   -0.7436 N   0  0  0  0  0  0  0  0  0  0  0  0
   -0.0928    0.1946   -1.1836 N   0  0  0  0  0  0  0  0  0  0  0  0
    1.7890    4.5698    1.8387 N   0  0  0  0  0  0  0  0  0  0  0  0
    6.9919   -2.1909    0.8353 N   0  0  0  0  0  0  0  0  0  0  0  0
    6.8315   -3.3026    0.0973 N   0  0  0  0  0  0  0  0  0  0  0  0
   -2.4214    1.4560   -0.4151 C   0  0  0  0  0  0  0  0  0  0  0  0
   -2.4642    2.5917   -1.4269 C   0  0  0  0  0  0  0  0  0  0  0  0
   -3.7690   -0.4116   -1.3138 C   0  0  0  0  0  0  0  0  0  0  0  0
   -4.2480   -1.2234   -0.1452 C   0  0  0  0  0  0  0  0  0  0  0  0
   -1.2627   -0.5136   -1.4697 C   0  0  0  0  0  0  0  0  0  0  0  0
    1.1874   -0.3346   -0.8850 C   0  0  0  0  0  0  0  0  0  0  0  0
    2.2634    0.5126   -0.6201 C   0  0  0  0  0  0  0  0  0  0  0  0
   -3.7218   -2.4950    0.0824 C   0  0  0  0  0  0  0  0  0  0  0  0
   -3.8018    4.1848   -0.2249 C   0  0  0  0  0  0  0  0  0  0  0  0
   -2.0172    4.9424   -1.6438 C   0  0  0  0  0  0  0  0  0  0  0  0
   -5.2192   -0.7069    0.7125 C   0  0  0  0  0  0  0  0  0  0  0  0
    3.6960   -1.4066   -0.3009 C   0  0  0  0  0  0  0  0  0  0  0  0
    1.3657   -1.7178   -0.8578 C   0  0  0  0  0  0  0  0  0  0  0  0
    3.5176   -0.0234   -0.3279 C   0  0  0  0  0  0  0  0  0  0  0  0
    2.3973    2.5707    0.5638 C   0  0  0  0  0  0  0  0  0  0  0  0
    1.5413    3.8263    0.6124 C   0  0  0  0  0  0  0  0  0  0  0  0
    2.6200   -2.2538   -0.5658 C   0  0  0  0  0  0  0  0  0  0  0  0
   -4.1668   -3.2500    1.1677 C   0  0  0  0  0  0  0  0  0  0  0  0
   -5.6644   -1.4619    1.7976 C   0  0  0  0  0  0  0  0  0  0  0  0
    4.9874   -1.9586   -0.0008 C   0  0  0  0  0  0  0  0  0  0  0  0
   -5.1381   -2.7335    2.0252 C   0  0  0  0  0  0  0  0  0  0  0  0
    5.9160   -1.3529    0.8101 C   0  0  0  0  0  0  0  0  0  0  0  0
    3.0249    5.3491    1.7317 C   0  0  0  0  0  0  0  0  0  0  0  0
    0.6606    5.4518    2.1469 C   0  0  0  0  0  0  0  0  0  0  0  0
    5.6052   -3.1551   -0.4109 C   0  0  0  0  0  0  0  0  0  0  0  0
   -2.6619   -4.9560    0.4750 C   0  0  0  0  0  0  0  0  0  0  0  0
   -1.5417    1.5400    0.2328 H   0  0  0  0  0  0  0  0  0  0  0  0
   -3.2786    1.4933    0.2648 H   0  0  0  0  0  0  0  0  0  0  0  0
   -1.5773    2.5100   -2.0682 H   0  0  0  0  0  0  0  0  0  0  0  0
   -3.3245    2.4914   -2.1019 H   0  0  0  0  0  0  0  0  0  0  0  0
   -3.7292   -1.0587   -2.1989 H   0  0  0  0  0  0  0  0  0  0  0  0
   -4.4716    0.3934   -1.5601 H   0  0  0  0  0  0  0  0  0  0  0  0
   -0.1379    1.2072   -1.1411 H   0  0  0  0  0  0  0  0  0  0  0  0
   -2.9820   -2.8604   -0.6189 H   0  0  0  0  0  0  0  0  0  0  0  0
   -4.1245    3.4581    0.5266 H   0  0  0  0  0  0  0  0  0  0  0  0
   -4.5573    4.2223   -1.0184 H   0  0  0  0  0  0  0  0  0  0  0  0
   -3.7971    5.1567    0.2824 H   0  0  0  0  0  0  0  0  0  0  0  0
   -0.9928    4.7522   -1.9836 H   0  0  0  0  0  0  0  0  0  0  0  0
   -1.9964    5.9055   -1.1217 H   0  0  0  0  0  0  0  0  0  0  0  0
   -2.6630    5.0393   -2.5240 H   0  0  0  0  0  0  0  0  0  0  0  0
   -5.6375    0.2825    0.5473 H   0  0  0  0  0  0  0  0  0  0  0  0
    0.5648   -2.4271   -1.0254 H   0  0  0  0  0  0  0  0  0  0  0  0
    4.3501    0.6527   -0.1476 H   0  0  0  0  0  0  0  0  0  0  0  0
    2.1831    1.9415    1.4384 H   0  0  0  0  0  0  0  0  0  0  0  0
    3.4646    2.8141    0.5627 H   0  0  0  0  0  0  0  0  0  0  0  0
    1.6884    4.4372   -0.2882 H   0  0  0  0  0  0  0  0  0  0  0  0
    0.4942    3.4961    0.5678 H   0  0  0  0  0  0  0  0  0  0  0  0
    2.7304   -3.3352   -0.5393 H   0  0  0  0  0  0  0  0  0  0  0  0
   -6.4204   -1.0595    2.4655 H   0  0  0  0  0  0  0  0  0  0  0  0
   -5.4884   -3.3167    2.8724 H   0  0  0  0  0  0  0  0  0  0  0  0
    5.9207   -0.4282    1.3707 H   0  0  0  0  0  0  0  0  0  0  0  0
    2.9899    6.0707    0.9072 H   0  0  0  0  0  0  0  0  0  0  0  0
    3.2052    5.9039    2.6598 H   0  0  0  0  0  0  0  0  0  0  0  0
    3.8984    4.7052    1.5919 H   0  0  0  0  0  0  0  0  0  0  0  0
    0.8377    5.9916    3.0838 H   0  0  0  0  0  0  0  0  0  0  0  0
    0.4823    6.1857    1.3524 H   0  0  0  0  0  0  0  0  0  0  0  0
   -0.2562    4.8692    2.2916 H   0  0  0  0  0  0  0  0  0  0  0  0
    5.2210   -3.9291   -1.0605 H   0  0  0  0  0  0  0  0  0  0  0  0
    7.8640   -2.0678    1.3343 H   0  0  0  0  0  0  0  0  0  0  0  0
   -2.3609   -5.9553    0.8061 H   0  0  0  0  0  0  0  0  0  0  0  0
   -1.7639   -4.3289    0.4977 H   0  0  0  0  0  0  0  0  0  0  0  0
   -3.0683   -5.0643   -0.5364 H   0  0  0  0  0  0  0  0  0  0  0  0
  1 16  1  0  0  0  0
  1 24  1  0  0  0  0
  2 14  2  0  0  0  0
  3 27  1  0  0  0  0
  3 35  1  0  0  0  0
  4 10  1  0  0  0  0
  4 12  1  0  0  0  0
  4 14  1  0  0  0  0
  5 11  1  0  0  0  0
  5 18  1  0  0  0  0
  5 19  1  0  0  0  0
  6 14  1  0  0  0  0
  6 15  1  0  0  0  0
  6 42  1  0  0  0  0
  7 25  1  0  0  0  0
  7 32  1  0  0  0  0
  7 33  1  0  0  0  0
  8  9  1  0  0  0  0
  8 31  1  0  0  0  0
  8 68  1  0  0  0  0
  9 34  2  0  0  0  0
 10 11  1  0  0  0  0
 10 36  1  0  0  0  0
 10 37  1  0  0  0  0
 11 38  1  0  0  0  0
 11 39  1  0  0  0  0
 12 13  1  0  0  0  0
 12 40  1  0  0  0  0
 12 41  1  0  0  0  0
 13 17  2  0  0  0  0
 13 20  1  0  0  0  0
 15 16  2  0  0  0  0
 15 22  1  0  0  0  0
 16 23  1  0  0  0  0
 17 27  1  0  0  0  0
 17 43  1  0  0  0  0
 18 44  1  0  0  0  0
 18 45  1  0  0  0  0
 18 46  1  0  0  0  0
 19 47  1  0  0  0  0
 19 48  1  0  0  0  0
 19 49  1  0  0  0  0
 20 28  2  0  0  0  0
 20 50  1  0  0  0  0
 21 23  2  0  0  0  0
 21 26  1  0  0  0  0
 21 29  1  0  0  0  0
 22 26  2  0  0  0  0
 22 51  1  0  0  0  0
 23 52  1  0  0  0  0
 24 25  1  0  0  0  0
 24 53  1  0  0  0  0
 24 54  1  0  0  0  0
 25 55  1  0  0  0  0
 25 56  1  0  0  0  0
 26 57  1  0  0  0  0
 27 30  2  0  0  0  0
 28 30  1  0  0  0  0
 28 58  1  0  0  0  0
 29 31  2  0  0  0  0
 29 34  1  0  0  0  0
 30 59  1  0  0  0  0
 31 60  1  0  0  0  0
 32 61  1  0  0  0  0
 32 62  1  0  0  0  0
 32 63  1  0  0  0  0
 33 64  1  0  0  0  0
 33 65  1  0  0  0  0
 33 66  1  0  0  0  0
 34 67  1  0  0  0  0
 35 69  1  0  0  0  0
 35 70  1  0  0  0  0
 35 71  1  0  0  0  0
M  END
> <PUBCHEM_COMPOUND_CID>
68517775

> <PUBCHEM_CONFORMER_RMSD>
1.2

> <PUBCHEM_CONFORMER_DIVERSEORDER>
1
89
100
52
160
93
41
98
70
88
123
22
108
61
77
27
64
156
20
66
58
65
78
71
97
23
99
138
49
30
154
68
158
145
26
55
67
140
28
39
115
149
25
110
76
17
124
80
144
10
34
116
102
40
126
48
113
51
161
109
45
96
91
18
134
62
101
117
136
157
135
132
105
112
130
137
59
120
141
147
15
57
104
148
90
46
32
50
14
127
146
159
63
13
54
133
87
4
125
72
142
75
103
37
85
119
42
151
53
121
155
83
35
152
43
9
79
95
24
82
114
31
143
81
3
122
153
19
7
118
60
131
21
12
86
92
139
47
84
56
107
36
38
73
16
69
106
128
6
111
8
129
74
94
5
11
44
33
29
2
150

> <PUBCHEM_MMFF94_PARTIAL_CHARGES>
46
1 -0.36
10 0.3
11 0.27
12 0.44
13 -0.14
14 0.69
15 0.12
16 0.08
17 -0.15
18 0.27
19 0.27
2 -0.57
20 -0.15
21 0.05
22 -0.15
23 -0.15
24 0.28
25 0.27
26 -0.15
27 0.08
28 -0.15
29 -0.05
3 -0.36
30 -0.15
31 -0.3
32 0.27
33 0.27
34 0.14
35 0.28
4 -0.66
42 0.37
43 0.15
5 -0.81
50 0.15
51 0.15
52 0.15
57 0.15
58 0.15
59 0.15
6 -0.55
60 0.15
67 0.15
68 0.27
7 -0.81
8 0.3
9 -0.71

> <PUBCHEM_EFFECTIVE_ROTOR_COUNT>
14

> <PUBCHEM_PHARMACOPHORE_FEATURES>
11
1 1 acceptor
1 2 acceptor
1 3 acceptor
1 5 cation
1 6 donor
1 7 cation
1 8 donor
1 9 acceptor
5 8 9 29 31 34 rings
6 13 17 20 27 28 30 rings
6 15 16 21 22 23 26 rings

> <PUBCHEM_HEAVY_ATOM_COUNT>
35

> <PUBCHEM_ATOM_DEF_STEREO_COUNT>
0

> <PUBCHEM_ATOM_UDEF_STEREO_COUNT>
0

> <PUBCHEM_BOND_DEF_STEREO_COUNT>
0

> <PUBCHEM_BOND_UDEF_STEREO_COUNT>
0

> <PUBCHEM_ISOTOPIC_ATOM_COUNT>
0

> <PUBCHEM_COMPONENT_COUNT>
1

> <PUBCHEM_CACTVS_TAUTO_COUNT>
2

> <PUBCHEM_CONFORMER_ID>
04157F8F00000001

> <PUBCHEM_MMFF94_ENERGY>
107.459

> <PUBCHEM_FEATURE_SELFOVERLAP>
55.822

> <PUBCHEM_SHAPE_FINGERPRINT>
11399510 152 17905346361376543235
140371 6 17910960145630479860
14444916 359 17835520797634399464
14950920 106 18271258230378398419
14955137 171 18342457032920653334
18393751 57 16971105753301105459
21033648 29 17415530187252116242
23559900 14 18114459067400042991
2747138 104 18341045230511516850
4073 2 18263081007878978222
42626532 9 18114757030993573721
6371380 46 18335414618137064629
8863177 126 18260551164493222942
9896288 288 18117844304846781779

> <PUBCHEM_SHAPE_MULTIPOLES>
672.79
13.95
8.78
1.81
10.4
10.85
0.42
-17.29
5.3
-0.02
4.12
-1.4
1.2
4.86

> <PUBCHEM_SHAPE_SELFOVERLAP>
1406.169

> <PUBCHEM_SHAPE_VOLUME>
385.1

> <PUBCHEM_COORDINATE_TYPE>
2
5
10

$$$$
68519792
  -OEChem-05102415093D

 55 57  0     0  0  0  0  0  0999 V2000
   -0.6278   -0.7662   -1.4871 O   0  0  0  0  0  0  0  0  0  0  0  0
   -3.7627   -4.1523    0.5809 O   0  0  0  0  0  0  0  0  0  0  0  0
   -2.0548    0.8289   -0.6045 N   0  0  0  0  0  0  0  0  0  0  0  0
   -2.2790    4.4362    0.3551 N   0  0  0  0  0  0  0  0  0  0  0  0
    0.2330    0.8391   -0.0395 N   0  0  0  0  0  0  0  0  0  0  0  0
    2.0171   -0.5754   -0.7329 N   0  0  0  0  0  0  0  0  0  0  0  0
    7.4493   -1.7578    0.0443 N   0  0  0  0  0  0  0  0  0  0  0  0
    7.9152   -0.5151    0.2569 N   0  0  0  0  0  0  0  0  0  0  0  0
   -2.2541    1.9929    0.2564 C   0  0  0  0  0  0  0  0  0  0  0  0
   -2.0477    3.2892   -0.5134 C   0  0  0  0  0  0  0  0  0  0  0  0
   -3.2423    0.3397   -1.2933 C   0  0  0  0  0  0  0  0  0  0  0  0
   -4.0029   -0.6547   -0.4646 C   0  0  0  0  0  0  0  0  0  0  0  0
   -0.7896    0.2159   -0.7593 C   0  0  0  0  0  0  0  0  0  0  0  0
   -3.5235   -1.9571   -0.3242 C   0  0  0  0  0  0  0  0  0  0  0  0
   -2.5891    5.6287   -0.4361 C   0  0  0  0  0  0  0  0  0  0  0  0
   -1.1137    4.6822    1.2070 C   0  0  0  0  0  0  0  0  0  0  0  0
   -5.1894   -0.2765    0.1642 C   0  0  0  0  0  0  0  0  0  0  0  0
   -4.2304   -2.8813    0.4451 C   0  0  0  0  0  0  0  0  0  0  0  0
   -5.8963   -1.2009    0.9333 C   0  0  0  0  0  0  0  0  0  0  0  0
    1.6044    0.4842   -0.0017 C   0  0  0  0  0  0  0  0  0  0  0  0
   -5.4168   -2.5032    1.0740 C   0  0  0  0  0  0  0  0  0  0  0  0
    2.4417    1.2539    0.7897 C   0  0  0  0  0  0  0  0  0  0  0  0
    4.2520   -0.1692    0.0949 C   0  0  0  0  0  0  0  0  0  0  0  0
    3.7895    0.9144    0.8334 C   0  0  0  0  0  0  0  0  0  0  0  0
    3.3338   -0.8752   -0.6653 C   0  0  0  0  0  0  0  0  0  0  0  0
    5.6354   -0.5433    0.1196 C   0  0  0  0  0  0  0  0  0  0  0  0
    6.0901   -1.8289   -0.0457 C   0  0  0  0  0  0  0  0  0  0  0  0
    6.8024    0.2223    0.3020 C   0  0  0  0  0  0  0  0  0  0  0  0
   -2.5439   -4.4705   -0.0893 C   0  0  0  0  0  0  0  0  0  0  0  0
   -3.2855    1.9616    0.6317 H   0  0  0  0  0  0  0  0  0  0  0  0
   -1.6449    1.9136    1.1595 H   0  0  0  0  0  0  0  0  0  0  0  0
   -1.0547    3.3256   -0.9802 H   0  0  0  0  0  0  0  0  0  0  0  0
   -2.7672    3.2988   -1.3430 H   0  0  0  0  0  0  0  0  0  0  0  0
   -2.9381   -0.1437   -2.2301 H   0  0  0  0  0  0  0  0  0  0  0  0
   -3.8733    1.1879   -1.5840 H   0  0  0  0  0  0  0  0  0  0  0  0
   -2.6078   -2.2090   -0.8444 H   0  0  0  0  0  0  0  0  0  0  0  0
   -2.7851    6.4852    0.2187 H   0  0  0  0  0  0  0  0  0  0  0  0
   -1.7734    5.8947   -1.1183 H   0  0  0  0  0  0  0  0  0  0  0  0
   -3.4991    5.4748   -1.0268 H   0  0  0  0  0  0  0  0  0  0  0  0
   -0.2087    4.8868    0.6230 H   0  0  0  0  0  0  0  0  0  0  0  0
   -1.2964    5.5434    1.8602 H   0  0  0  0  0  0  0  0  0  0  0  0
   -0.9106    3.8381    1.8729 H   0  0  0  0  0  0  0  0  0  0  0  0
   -5.5746    0.7346    0.0633 H   0  0  0  0  0  0  0  0  0  0  0  0
    0.0289    1.6770    0.4896 H   0  0  0  0  0  0  0  0  0  0  0  0
   -6.8200   -0.9066    1.4229 H   0  0  0  0  0  0  0  0  0  0  0  0
   -5.9719   -3.2187    1.6744 H   0  0  0  0  0  0  0  0  0  0  0  0
    2.0757    2.0981    1.3652 H   0  0  0  0  0  0  0  0  0  0  0  0
    4.4583    1.5057    1.4536 H   0  0  0  0  0  0  0  0  0  0  0  0
    3.6167   -1.7257   -1.2785 H   0  0  0  0  0  0  0  0  0  0  0  0
    5.5935   -2.7754   -0.2095 H   0  0  0  0  0  0  0  0  0  0  0  0
    6.8967    1.2870    0.4641 H   0  0  0  0  0  0  0  0  0  0  0  0
   -2.3183   -5.5189    0.1319 H   0  0  0  0  0  0  0  0  0  0  0  0
   -1.7064   -3.8769    0.2931 H   0  0  0  0  0  0  0  0  0  0  0  0
   -2.6492   -4.3898   -1.1765 H   0  0  0  0  0  0  0  0  0  0  0  0
    8.1174   -2.5148   -0.0281 H   0  0  0  0  0  0  0  0  0  0  0  0
  1 13  2  0  0  0  0
  2 18  1  0  0  0  0
  2 29  1  0  0  0  0
  3  9  1  0  0  0  0
  3 11  1  0  0  0  0
  3 13  1  0  0  0  0
  4 10  1  0  0  0  0
  4 15  1  0  0  0  0
  4 16  1  0  0  0  0
  5 13  1  0  0  0  0
  5 20  1  0  0  0  0
  5 44  1  0  0  0  0
  6 20  2  0  0  0  0
  6 25  1  0  0  0  0
  7  8  1  0  0  0  0
  7 27  1  0  0  0  0
  7 55  1  0  0  0  0
  8 28  2  0  0  0  0
  9 10  1  0  0  0  0
  9 30  1  0  0  0  0
  9 31  1  0  0  0  0
 10 32  1  0  0  0  0
 10 33  1  0  0  0  0
 11 12  1  0  0  0  0
 11 34  1  0  0  0  0
 11 35  1  0  0  0  0
 12 14  2  0  0  0  0
 12 17  1  0  0  0  0
 14 18  1  0  0  0  0
 14 36  1  0  0  0  0
 15 37  1  0  0  0  0
 15 38  1  0  0  0  0
 15 39  1  0  0  0  0
 16 40  1  0  0  0  0
 16 41  1  0  0  0  0
 16 42  1  0  0  0  0
 17 19  2  0  0  0  0
 17 43  1  0  0  0  0
 18 21  2  0  0  0  0
 19 21  1  0  0  0  0
 19 45  1  0  0  0  0
 20 22  1  0  0  0  0
 21 46  1  0  0  0  0
 22 24  2  0  0  0  0
 22 47  1  0  0  0  0
 23 24  1  0  0  0  0
 23 25  2  0  0  0  0
 23 26  1  0  0  0  0
 24 48  1  0  0  0  0
 25 49  1  0  0  0  0
 26 27  2  0  0  0  0
 26 28  1  0  0  0  0
 27 50  1  0  0  0  0
 28 51  1  0  0  0  0
 29 52  1  0  0  0  0
 29 53  1  0  0  0  0
 29 54  1  0  0  0  0
M  END
> <PUBCHEM_COMPOUND_CID>
68519792

> <PUBCHEM_CONFORMER_RMSD>
1

> <PUBCHEM_CONFORMER_DIVERSEORDER>
1
125
59
162
167
26
63
157
152
44
145
80
107
58
104
70
68
79
48
74
84
129
119
139
85
112
120
78
86
21
83
98
141
45
89
142
3
126
97
169
29
92
15
23
132
16
163
93
121
73
91
156
96
27
108
54
61
34
9
76
146
24
51
103
160
149
12
35
100
37
143
102
72
82
60
113
153
33
110
94
174
106
161
10
114
165
127
42
134
62
133
41
55
57
137
40
138
64
46
5
158
159
130
22
135
176
67
166
109
122
155
4
39
131
147
20
18
71
101
38
25
87
136
53
164
6
115
171
32
172
128
105
36
81
118
144
17
175
99
13
116
95
11
31
56
77
30
8
154
47
52
2
69
111
140
150
90
66
19
117
49
151
50
28
123
14
7
170
88
124
75
168
43
173
65
148

> <PUBCHEM_MMFF94_PARTIAL_CHARGES>
40
1 -0.57
10 0.27
11 0.44
12 -0.14
13 0.69
14 -0.15
15 0.27
16 0.27
17 -0.15
18 0.08
19 -0.15
2 -0.36
20 0.43
21 -0.15
22 -0.15
23 0.05
24 -0.15
25 0.16
26 -0.05
27 -0.3
28 0.14
29 0.28
3 -0.66
36 0.15
4 -0.81
43 0.15
44 0.37
45 0.15
46 0.15
47 0.15
48 0.15
49 0.15
5 -0.55
50 0.15
51 0.15
55 0.27
6 -0.62
7 0.3
8 -0.71
9 0.3

> <PUBCHEM_EFFECTIVE_ROTOR_COUNT>
10

> <PUBCHEM_PHARMACOPHORE_FEATURES>
9
1 1 acceptor
1 2 acceptor
1 4 cation
1 5 donor
1 7 donor
1 8 acceptor
5 7 8 26 27 28 rings
6 12 14 17 18 19 21 rings
6 6 20 22 23 24 25 rings

> <PUBCHEM_HEAVY_ATOM_COUNT>
29

> <PUBCHEM_ATOM_DEF_STEREO_COUNT>
0

> <PUBCHEM_ATOM_UDEF_STEREO_COUNT>
0

> <PUBCHEM_BOND_DEF_STEREO_COUNT>
0

> <PUBCHEM_BOND_UDEF_STEREO_COUNT>
0

> <PUBCHEM_ISOTOPIC_ATOM_COUNT>
0

> <PUBCHEM_COMPONENT_COUNT>
1

> <PUBCHEM_CACTVS_TAUTO_COUNT>
3

> <PUBCHEM_CONFORMER_ID>
0415877000000001

> <PUBCHEM_MMFF94_ENERGY>
79.8679

> <PUBCHEM_FEATURE_SELFOVERLAP>
45.671

> <PUBCHEM_SHAPE_FINGERPRINT>
10319688 45 18410293652957970019
10462674 296 17767392849084407854
11056379 131 18337388249313250157
11524674 6 17775567567522818855
11756154 5 18411692214674133818
12166972 35 17603588560349710596
12760667 363 18411696612810568927
12788726 201 18262255385850885733
13009979 54 18334018306372556020
13073987 5 18338509739227312898
13540713 4 17700707163699519222
14068700 675 18187649149476485676
14394314 77 18410014330414106723
14713325 29 18270117894474615137
14844126 61 18408326571211467121
14856354 85 18412550928638888310
15352257 5 18408885157436774762
15439362 3 17402610749284591420
17780758 139 18272093816255077603
17844677 252 18411421688038890060
18608769 82 18339358669394015866
20771845 35 17627490968459656347
21796203 349 17756182155659859075
22956985 138 17760648466301725429
23559900 14 18337100276008653745
249057 25 17822019688313922852
3418910 222 18335425712239193700
4058900 60 17405709181932275449
4073 2 18339079277428613582
4409770 3 18334288726963107773
497634 4 18113897126769451476
5104073 3 18200867384535782584
5372103 7 13325752639638487243
8863177 126 18340202011807766410
9896288 288 18266460914832115091
999808 66 18412263939425556446

> <PUBCHEM_SHAPE_MULTIPOLES>
555.18
17.25
6.06
1.01
31.78
7.1
-0.04
-13.99
3.16
-10.87
0.98
-0.64
0.15
1.38

> <PUBCHEM_SHAPE_SELFOVERLAP>
1176.433

> <PUBCHEM_SHAPE_VOLUME>
311.8

> <PUBCHEM_COORDINATE_TYPE>
2
5
10

$$$$
68564018
  -OEChem-05102415093D

 51 53  0     0  0  0  0  0  0999 V2000
    1.2367    2.9593    0.3454 O   0  0  0  0  0  0  0  0  0  0  0  0
    1.0938   -3.8318    0.0147 O   0  0  0  0  0  0  0  0  0  0  0  0
    2.8997    1.5450   -0.4249 N   0  0  0  0  0  0  0  0  0  0  0  0
    0.6527    1.1782   -1.0329 N   0  0  0  0  0  0  0  0  0  0  0  0
   -6.6870   -0.8695    0.3326 N   0  0  0  0  0  0  0  0  0  0  0  0
   -6.9068    0.3044    0.9489 N   0  0  0  0  0  0  0  0  0  0  0  0
    3.9937    2.2553    0.2341 C   0  0  0  0  0  0  0  0  0  0  0  0
    3.2828    0.3738   -1.2032 C   0  0  0  0  0  0  0  0  0  0  0  0
    3.8041    2.2343    1.7453 C   0  0  0  0  0  0  0  0  0  0  0  0
    4.0970    3.6823   -0.2897 C   0  0  0  0  0  0  0  0  0  0  0  0
    3.2246   -0.8858   -0.3882 C   0  0  0  0  0  0  0  0  0  0  0  0
    1.5544    1.9674   -0.3146 C   0  0  0  0  0  0  0  0  0  0  0  0
    2.1736   -1.7850   -0.5675 C   0  0  0  0  0  0  0  0  0  0  0  0
    4.2221   -1.1564    0.5488 C   0  0  0  0  0  0  0  0  0  0  0  0
   -0.7061    0.9194   -0.7251 C   0  0  0  0  0  0  0  0  0  0  0  0
    2.1198   -2.9549    0.1902 C   0  0  0  0  0  0  0  0  0  0  0  0
    4.1681   -2.3262    1.3064 C   0  0  0  0  0  0  0  0  0  0  0  0
   -1.2833    1.4833    0.4127 C   0  0  0  0  0  0  0  0  0  0  0  0
   -1.4659    0.0994   -1.5594 C   0  0  0  0  0  0  0  0  0  0  0  0
   -3.3804    0.4075   -0.1183 C   0  0  0  0  0  0  0  0  0  0  0  0
    3.1168   -3.2255    1.1272 C   0  0  0  0  0  0  0  0  0  0  0  0
   -2.6204    1.2273    0.7161 C   0  0  0  0  0  0  0  0  0  0  0  0
   -2.8030   -0.1567   -1.2559 C   0  0  0  0  0  0  0  0  0  0  0  0
   -4.7568    0.1435    0.1942 C   0  0  0  0  0  0  0  0  0  0  0  0
   -5.4150   -1.0155   -0.1376 C   0  0  0  0  0  0  0  0  0  0  0  0
   -5.7241    0.9189    0.8612 C   0  0  0  0  0  0  0  0  0  0  0  0
    0.1089   -3.4920   -0.9604 C   0  0  0  0  0  0  0  0  0  0  0  0
    4.9416    1.7546    0.0069 H   0  0  0  0  0  0  0  0  0  0  0  0
    4.3075    0.5113   -1.5747 H   0  0  0  0  0  0  0  0  0  0  0  0
    2.7042    0.2783   -2.1251 H   0  0  0  0  0  0  0  0  0  0  0  0
    4.6974    2.6291    2.2423 H   0  0  0  0  0  0  0  0  0  0  0  0
    3.6389    1.2189    2.1180 H   0  0  0  0  0  0  0  0  0  0  0  0
    2.9597    2.8462    2.0762 H   0  0  0  0  0  0  0  0  0  0  0  0
    4.9924    4.1696    0.1121 H   0  0  0  0  0  0  0  0  0  0  0  0
    4.1751    3.6906   -1.3825 H   0  0  0  0  0  0  0  0  0  0  0  0
    3.2412    4.3045   -0.0130 H   0  0  0  0  0  0  0  0  0  0  0  0
    0.9707    0.7065   -1.8699 H   0  0  0  0  0  0  0  0  0  0  0  0
    1.4314   -1.5374   -1.3173 H   0  0  0  0  0  0  0  0  0  0  0  0
    5.0574   -0.4781    0.6930 H   0  0  0  0  0  0  0  0  0  0  0  0
    4.9463   -2.5388    2.0336 H   0  0  0  0  0  0  0  0  0  0  0  0
   -0.7360    2.1053    1.1104 H   0  0  0  0  0  0  0  0  0  0  0  0
   -1.0284   -0.3450   -2.4497 H   0  0  0  0  0  0  0  0  0  0  0  0
    3.0806   -4.1354    1.7199 H   0  0  0  0  0  0  0  0  0  0  0  0
   -3.0440    1.6695    1.6146 H   0  0  0  0  0  0  0  0  0  0  0  0
   -3.3686   -0.7902   -1.9345 H   0  0  0  0  0  0  0  0  0  0  0  0
   -5.1129   -1.9206   -0.6464 H   0  0  0  0  0  0  0  0  0  0  0  0
   -5.6253    1.9075    1.2874 H   0  0  0  0  0  0  0  0  0  0  0  0
   -7.4525   -1.5290    0.2694 H   0  0  0  0  0  0  0  0  0  0  0  0
   -0.6249   -4.3046   -0.9742 H   0  0  0  0  0  0  0  0  0  0  0  0
    0.5374   -3.4332   -1.9665 H   0  0  0  0  0  0  0  0  0  0  0  0
   -0.4302   -2.5821   -0.6806 H   0  0  0  0  0  0  0  0  0  0  0  0
  1 12  2  0  0  0  0
  2 16  1  0  0  0  0
  2 27  1  0  0  0  0
  3  7  1  0  0  0  0
  3  8  1  0  0  0  0
  3 12  1  0  0  0  0
  4 12  1  0  0  0  0
  4 15  1  0  0  0  0
  4 37  1  0  0  0  0
  5  6  1  0  0  0  0
  5 25  1  0  0  0  0
  5 48  1  0  0  0  0
  6 26  2  0  0  0  0
  7  9  1  0  0  0  0
  7 10  1  0  0  0  0
  7 28  1  0  0  0  0
  8 11  1  0  0  0  0
  8 29  1  0  0  0  0
  8 30  1  0  0  0  0
  9 31  1  0  0  0  0
  9 32  1  0  0  0  0
  9 33  1  0  0  0  0
 10 34  1  0  0  0  0
 10 35  1  0  0  0  0
 10 36  1  0  0  0  0
 11 13  2  0  0  0  0
 11 14  1  0  0  0  0
 13 16  1  0  0  0  0
 13 38  1  0  0  0  0
 14 17  2  0  0  0  0
 14 39  1  0  0  0  0
 15 18  2  0  0  0  0
 15 19  1  0  0  0  0
 16 21  2  0  0  0  0
 17 21  1  0  0  0  0
 17 40  1  0  0  0  0
 18 22  1  0  0  0  0
 18 41  1  0  0  0  0
 19 23  2  0  0  0  0
 19 42  1  0  0  0  0
 20 22  2  0  0  0  0
 20 23  1  0  0  0  0
 20 24  1  0  0  0  0
 21 43  1  0  0  0  0
 22 44  1  0  0  0  0
 23 45  1  0  0  0  0
 24 25  2  0  0  0  0
 24 26  1  0  0  0  0
 25 46  1  0  0  0  0
 26 47  1  0  0  0  0
 27 49  1  0  0  0  0
 27 50  1  0  0  0  0
 27 51  1  0  0  0  0
M  END
> <PUBCHEM_COMPOUND_CID>
68564018

> <PUBCHEM_CONFORMER_RMSD>
1

> <PUBCHEM_CONFORMER_DIVERSEORDER>
1
40
99
95
85
83
61
21
139
74
137
98
128
90
96
118
107
101
68
54
135
138
76
12
142
6
115
16
84
123
62
120
42
26
48
81
59
132
56
112
47
33
97
131
100
10
28
104
39
73
22
38
43
86
94
23
29
134
24
105
88
25
45
64
19
11
77
71
58
75
92
27
140
63
4
130
113
66
133
127
14
103
13
110
55
34
117
122
82
106
5
93
80
44
20
119
89
124
50
7
31
78
72
30
108
141
17
121
91
65
32
52
57
3
51
37
114
136
35
125
87
70
69
49
9
79
53
116
126
8
18
111
67
60
102
109
15
129
2
46
41
36

> <PUBCHEM_MMFF94_PARTIAL_CHARGES>
37
1 -0.57
11 -0.14
12 0.69
13 -0.15
14 -0.15
15 0.12
16 0.08
17 -0.15
18 -0.15
19 -0.15
2 -0.36
20 0.05
21 -0.15
22 -0.15
23 -0.15
24 -0.05
25 -0.3
26 0.14
27 0.28
3 -0.66
37 0.37
38 0.15
39 0.15
4 -0.55
40 0.15
41 0.15
42 0.15
43 0.15
44 0.15
45 0.15
46 0.15
47 0.15
48 0.27
5 0.3
6 -0.71
7 0.3
8 0.44

> <PUBCHEM_EFFECTIVE_ROTOR_COUNT>
8

> <PUBCHEM_PHARMACOPHORE_FEATURES>
9
1 1 acceptor
1 2 acceptor
1 4 donor
1 5 donor
1 6 acceptor
3 7 9 10 hydrophobe
5 5 6 24 25 26 rings
6 11 13 14 16 17 21 rings
6 15 18 19 20 22 23 rings

> <PUBCHEM_HEAVY_ATOM_COUNT>
27

> <PUBCHEM_ATOM_DEF_STEREO_COUNT>
0

> <PUBCHEM_ATOM_UDEF_STEREO_COUNT>
0

> <PUBCHEM_BOND_DEF_STEREO_COUNT>
0

> <PUBCHEM_BOND_UDEF_STEREO_COUNT>
0

> <PUBCHEM_ISOTOPIC_ATOM_COUNT>
0

> <PUBCHEM_COMPONENT_COUNT>
1

> <PUBCHEM_CACTVS_TAUTO_COUNT>
2

> <PUBCHEM_CONFORMER_ID>
0416343200000001

> <PUBCHEM_MMFF94_ENERGY>
82.9593

> <PUBCHEM_FEATURE_SELFOVERLAP>
45.671

> <PUBCHEM_SHAPE_FINGERPRINT>
10816530 23 17975698612278325408
1100329 8 18338226168369878182
12107183 9 18051983511340985273
12553582 1 18196365923496416974
12596602 18 17703514384784600579
12788726 201 17417826040640510505
13140716 1 18337102462753896238
13533116 47 18408890620376023953
13583140 156 18338789001774062629
1361 2 18409167748814338659
13785724 45 17839475392470365095
14565420 104 18127684040694237224
146900 427 18342460352486936443
14725015 67 18042396928949437027
14849402 71 18410292536841661464
14955137 171 18268430127589798646
15183329 4 11241975863419518383
15250474 111 18271799164529965903
15927050 60 18196373847700716886
16067690 210 16271106911127376979
16992610 120 18117852221405705380
17857418 61 18409730630438380631
1813 80 17095244735314929237
19427546 62 18048602809048238644
20511986 3 17846489362281209453
21197605 99 18264777730213998091
21304303 94 18266201538000187300
21421861 104 18342458123151191412
22224240 67 18267580389874844208
23558518 356 17478599569859118980
23559900 14 17822306707222701245
239999 70 18201168706134576140
3117164 225 17910404887995114673
3178227 256 18335417981196950552
3421961 26 18335981978230789848
345986 75 18201436909351398209
3633792 109 18335409142565387351
3680242 22 18337113358832946219
4073 2 18191032398948855313
4340502 62 18270961357679972552
5104073 3 18341909485120577241
5309563 4 18263923229084062194
5312544 6 18411140263868070399
653340 110 17836642294423745026
7399639 24 18187918516941025964

> <PUBCHEM_SHAPE_MULTIPOLES>
523.98
13.11
4.39
1.27
23.49
1.83
0.03
-0.81
4.55
-7.4
0.51
-0.38
0.02
-0.91

> <PUBCHEM_SHAPE_SELFOVERLAP>
1122.301

> <PUBCHEM_SHAPE_VOLUME>
291.4

> <PUBCHEM_COORDINATE_TYPE>
2
5
10

$$$$
68560854
  -OEChem-05102415093D

 49 51  0     0  0  0  0  0  0999 V2000
   -2.4638   -4.3544   -1.2503 O   0  0  0  0  0  0  0  0  0  0  0  0
   -0.5381   -0.2044    2.1909 O   0  0  0  0  0  0  0  0  0  0  0  0
   -6.2954    1.6952   -1.5154 O   0  0  0  0  0  0  0  0  0  0  0  0
   -1.9741   -1.2590    0.7126 N   0  0  0  0  0  0  0  0  0  0  0  0
    0.3586   -1.4917    0.4728 N   0  0  0  0  0  0  0  0  0  0  0  0
    7.6955    0.7084   -0.6514 N   0  0  0  0  0  0  0  0  0  0  0  0
    7.3252    1.9986   -0.5840 N   0  0  0  0  0  0  0  0  0  0  0  0
   -3.1945   -0.7815    1.3503 C   0  0  0  0  0  0  0  0  0  0  0  0
   -2.1615   -2.1083   -0.4618 C   0  0  0  0  0  0  0  0  0  0  0  0
   -3.6779    0.5051    0.7461 C   0  0  0  0  0  0  0  0  0  0  0  0
   -0.6897   -0.9216    1.1995 C   0  0  0  0  0  0  0  0  0  0  0  0
   -2.2471   -3.5751   -0.0812 C   0  0  0  0  0  0  0  0  0  0  0  0
   -4.7757    0.5027   -0.1144 C   0  0  0  0  0  0  0  0  0  0  0  0
   -3.0284    1.7029    1.0451 C   0  0  0  0  0  0  0  0  0  0  0  0
    1.6600   -0.9668    0.2755 C   0  0  0  0  0  0  0  0  0  0  0  0
    4.2214    0.0670   -0.1150 C   0  0  0  0  0  0  0  0  0  0  0  0
   -5.2241    1.6982   -0.6759 C   0  0  0  0  0  0  0  0  0  0  0  0
    2.0113    0.2585    0.8420 C   0  0  0  0  0  0  0  0  0  0  0  0
    2.5893   -1.6752   -0.4864 C   0  0  0  0  0  0  0  0  0  0  0  0
   -3.4769    2.8982    0.4834 C   0  0  0  0  0  0  0  0  0  0  0  0
    3.2921    0.7754    0.6467 C   0  0  0  0  0  0  0  0  0  0  0  0
    3.8700   -1.1583   -0.6816 C   0  0  0  0  0  0  0  0  0  0  0  0
   -4.5747    2.8959   -0.3772 C   0  0  0  0  0  0  0  0  0  0  0  0
    5.5397    0.5993   -0.3166 C   0  0  0  0  0  0  0  0  0  0  0  0
    6.6633   -0.1698   -0.4973 C   0  0  0  0  0  0  0  0  0  0  0  0
    6.0073    1.9257   -0.3794 C   0  0  0  0  0  0  0  0  0  0  0  0
   -6.9116    0.4350   -1.7771 C   0  0  0  0  0  0  0  0  0  0  0  0
   -2.9982   -0.6148    2.4169 H   0  0  0  0  0  0  0  0  0  0  0  0
   -3.9604   -1.5648    1.3043 H   0  0  0  0  0  0  0  0  0  0  0  0
   -1.3690   -1.9456   -1.2004 H   0  0  0  0  0  0  0  0  0  0  0  0
   -3.0797   -1.8083   -0.9812 H   0  0  0  0  0  0  0  0  0  0  0  0
   -3.0790   -3.7529    0.6082 H   0  0  0  0  0  0  0  0  0  0  0  0
   -1.3280   -3.9212    0.4016 H   0  0  0  0  0  0  0  0  0  0  0  0
   -5.2433   -0.4559   -0.3129 H   0  0  0  0  0  0  0  0  0  0  0  0
    0.1865   -2.3670   -0.0107 H   0  0  0  0  0  0  0  0  0  0  0  0
   -2.1800    1.7291    1.7214 H   0  0  0  0  0  0  0  0  0  0  0  0
    1.3254    0.8635    1.4222 H   0  0  0  0  0  0  0  0  0  0  0  0
    2.3268   -2.6295   -0.9358 H   0  0  0  0  0  0  0  0  0  0  0  0
   -2.9730    3.8313    0.7180 H   0  0  0  0  0  0  0  0  0  0  0  0
    3.5415    1.7322    1.0990 H   0  0  0  0  0  0  0  0  0  0  0  0
    4.5645   -1.7304   -1.2916 H   0  0  0  0  0  0  0  0  0  0  0  0
   -4.9197    3.8304   -0.8112 H   0  0  0  0  0  0  0  0  0  0  0  0
   -2.5176   -5.2834   -0.9680 H   0  0  0  0  0  0  0  0  0  0  0  0
    6.8353   -1.2371   -0.5247 H   0  0  0  0  0  0  0  0  0  0  0  0
    5.4491    2.8470   -0.2882 H   0  0  0  0  0  0  0  0  0  0  0  0
    8.6738    0.4973   -0.8035 H   0  0  0  0  0  0  0  0  0  0  0  0
   -6.2255   -0.2509   -2.2857 H   0  0  0  0  0  0  0  0  0  0  0  0
   -7.3382   -0.0014   -0.8675 H   0  0  0  0  0  0  0  0  0  0  0  0
   -7.7447    0.6195   -2.4632 H   0  0  0  0  0  0  0  0  0  0  0  0
  1 12  1  0  0  0  0
  1 43  1  0  0  0  0
  2 11  2  0  0  0  0
  3 17  1  0  0  0  0
  3 27  1  0  0  0  0
  4  8  1  0  0  0  0
  4  9  1  0  0  0  0
  4 11  1  0  0  0  0
  5 11  1  0  0  0  0
  5 15  1  0  0  0  0
  5 35  1  0  0  0  0
  6  7  1  0  0  0  0
  6 25  1  0  0  0  0
  6 46  1  0  0  0  0
  7 26  2  0  0  0  0
  8 10  1  0  0  0  0
  8 28  1  0  0  0  0
  8 29  1  0  0  0  0
  9 12  1  0  0  0  0
  9 30  1  0  0  0  0
  9 31  1  0  0  0  0
 10 13  2  0  0  0  0
 10 14  1  0  0  0  0
 12 32  1  0  0  0  0
 12 33  1  0  0  0  0
 13 17  1  0  0  0  0
 13 34  1  0  0  0  0
 14 20  2  0  0  0  0
 14 36  1  0  0  0  0
 15 18  2  0  0  0  0
 15 19  1  0  0  0  0
 16 21  2  0  0  0  0
 16 22  1  0  0  0  0
 16 24  1  0  0  0  0
 17 23  2  0  0  0  0
 18 21  1  0  0  0  0
 18 37  1  0  0  0  0
 19 22  2  0  0  0  0
 19 38  1  0  0  0  0
 20 23  1  0  0  0  0
 20 39  1  0  0  0  0
 21 40  1  0  0  0  0
 22 41  1  0  0  0  0
 23 42  1  0  0  0  0
 24 25  2  0  0  0  0
 24 26  1  0  0  0  0
 25 44  1  0  0  0  0
 26 45  1  0  0  0  0
 27 47  1  0  0  0  0
 27 48  1  0  0  0  0
 27 49  1  0  0  0  0
M  END
> <PUBCHEM_COMPOUND_CID>
68560854

> <PUBCHEM_CONFORMER_RMSD>
1

> <PUBCHEM_CONFORMER_DIVERSEORDER>
2
92
152
29
147
116
45
113
25
115
148
119
118
123
24
69
23
80
110
14
129
105
127
133
96
154
102
58
109
78
19
125
140
126
60
94
18
132
101
75
98
122
22
65
74
106
143
139
153
108
84
16
73
107
9
68
91
61
77
46
83
64
41
95
145
137
141
146
71
43
55
57
32
42
5
103
50
44
150
54
3
40
124
48
149
31
26
100
39
82
62
8
151
10
52
79
72
87
86
111
4
67
49
76
121
53
135
33
130
37
36
89
30
70
112
35
117
59
66
51
27
85
144
7
17
81
38
136
104
28
90
128
131
93
142
63
97
134
12
1
99
138
88
20
47
56
34
21
120
114
6
15
11
13

> <PUBCHEM_MMFF94_PARTIAL_CHARGES>
40
1 -0.68
10 -0.14
11 0.69
12 0.28
13 -0.15
14 -0.15
15 0.12
16 0.05
17 0.08
18 -0.15
19 -0.15
2 -0.57
20 -0.15
21 -0.15
22 -0.15
23 -0.15
24 -0.05
25 -0.3
26 0.14
27 0.28
3 -0.36
34 0.15
35 0.37
36 0.15
37 0.15
38 0.15
39 0.15
4 -0.66
40 0.15
41 0.15
42 0.15
43 0.4
44 0.15
45 0.15
46 0.27
5 -0.55
6 0.3
7 -0.71
8 0.44
9 0.3

> <PUBCHEM_EFFECTIVE_ROTOR_COUNT>
9

> <PUBCHEM_PHARMACOPHORE_FEATURES>
10
1 1 acceptor
1 1 donor
1 2 acceptor
1 3 acceptor
1 5 donor
1 6 donor
1 7 acceptor
5 6 7 24 25 26 rings
6 10 13 14 17 20 23 rings
6 15 16 18 19 21 22 rings

> <PUBCHEM_HEAVY_ATOM_COUNT>
27

> <PUBCHEM_ATOM_DEF_STEREO_COUNT>
0

> <PUBCHEM_ATOM_UDEF_STEREO_COUNT>
0

> <PUBCHEM_BOND_DEF_STEREO_COUNT>
0

> <PUBCHEM_BOND_UDEF_STEREO_COUNT>
0

> <PUBCHEM_ISOTOPIC_ATOM_COUNT>
0

> <PUBCHEM_COMPONENT_COUNT>
1

> <PUBCHEM_CACTVS_TAUTO_COUNT>
2

> <PUBCHEM_CONFORMER_ID>
041627D600000002

> <PUBCHEM_MMFF94_ENERGY>
78.9292

> <PUBCHEM_FEATURE_SELFOVERLAP>
50.748

> <PUBCHEM_SHAPE_FINGERPRINT>
10554248 39 18336261246280411910
10674148 151 15913323581861456811
11135926 11 17560817511027533870
11961588 58 18334008368081320913
12633257 1 14779563299902268122
12760667 363 9367340414986501529
12895837 130 18188216506282741084
13540713 4 17487322992013450218
13668630 136 15267340725574837060
13690498 29 17986671678088622223
13911987 19 18342452609278132313
14930077 153 18268705173010322237
14931854 50 18271239422410783477
14950920 106 12829791620980107237
15064981 194 18266192780224772813
15183329 4 18342458110751391432
15238133 3 16588037809560753046
15463212 79 18335417976158704723
17780758 139 9079118847591031083
18608769 82 18336836389582533747
19427546 20 18338799043191588511
20281389 69 18113905952985136688
20511986 3 18040428893614542768
20775438 99 17268583924844805157
21033648 144 18042405742934185717
21150785 3 16056876940701330064
21403212 168 8502377759337313965
21709351 56 18200880698802537110
21756936 100 17676208000075457379
22393880 68 18201437030143141146
23559900 14 17917146208316797952
23569943 247 13109035620749110932
2838139 119 18043531608069976145
44249763 50 18271515507509057728
5372103 7 17460015324644038301
563151 97 18335699485811852774
6327066 14 18334573500026061877
636775 8 9222964686422791456
8863177 126 9150880656095674044
999808 66 12247677192924626733

> <PUBCHEM_SHAPE_MULTIPOLES>
518.12
19.02
3.52
1.34
19.76
2.43
-0.13
-14.02
9.05
-4.21
0.93
-1.66
0.07
0.01

> <PUBCHEM_SHAPE_SELFOVERLAP>
1108.764

> <PUBCHEM_SHAPE_VOLUME>
287.4

> <PUBCHEM_COORDINATE_TYPE>
2
5
10

$$$$
68521380
  -OEChem-05102415093D

 52 54  0     0  0  0  0  0  0999 V2000
   -1.2819    4.0368   -0.1198 O   0  0  0  0  0  0  0  0  0  0  0  0
   -1.0088    0.2617   -1.8113 O   0  0  0  0  0  0  0  0  0  0  0  0
   -3.2805   -3.9640   -0.2115 O   0  0  0  0  0  0  0  0  0  0  0  0
   -2.2938    1.3426   -0.2175 N   0  0  0  0  0  0  0  0  0  0  0  0
    0.0552    1.5255   -0.1731 N   0  0  0  0  0  0  0  0  0  0  0  0
    7.4120   -0.8314    0.3327 N   0  0  0  0  0  0  0  0  0  0  0  0
    7.0102   -2.1133    0.2956 N   0  0  0  0  0  0  0  0  0  0  0  0
   -3.5731    0.8925   -0.7514 C   0  0  0  0  0  0  0  0  0  0  0  0
   -2.3645    2.1927    0.9691 C   0  0  0  0  0  0  0  0  0  0  0  0
   -4.0314   -0.3852   -0.1098 C   0  0  0  0  0  0  0  0  0  0  0  0
   -1.0620    0.9795   -0.8102 C   0  0  0  0  0  0  0  0  0  0  0  0
   -2.4504    3.6619    0.5980 C   0  0  0  0  0  0  0  0  0  0  0  0
   -3.4356   -1.5960   -0.4626 C   0  0  0  0  0  0  0  0  0  0  0  0
   -5.0538   -0.3610    0.8389 C   0  0  0  0  0  0  0  0  0  0  0  0
    1.3571    0.9729   -0.0856 C   0  0  0  0  0  0  0  0  0  0  0  0
   -3.8623   -2.7828    0.1332 C   0  0  0  0  0  0  0  0  0  0  0  0
    3.9197   -0.1156    0.0889 C   0  0  0  0  0  0  0  0  0  0  0  0
   -5.4804   -1.5478    1.4347 C   0  0  0  0  0  0  0  0  0  0  0  0
    2.3615    1.6596    0.5965 C   0  0  0  0  0  0  0  0  0  0  0  0
    1.6339   -0.2582   -0.6804 C   0  0  0  0  0  0  0  0  0  0  0  0
   -4.8847   -2.7589    1.0818 C   0  0  0  0  0  0  0  0  0  0  0  0
    3.6428    1.1154    0.6838 C   0  0  0  0  0  0  0  0  0  0  0  0
    2.9152   -0.8023   -0.5931 C   0  0  0  0  0  0  0  0  0  0  0  0
    5.2387   -0.6760    0.1792 C   0  0  0  0  0  0  0  0  0  0  0  0
    6.3895    0.0688    0.2661 C   0  0  0  0  0  0  0  0  0  0  0  0
   -1.3130    5.4095   -0.4860 C   0  0  0  0  0  0  0  0  0  0  0  0
    5.6817   -2.0121    0.2018 C   0  0  0  0  0  0  0  0  0  0  0  0
   -2.2411   -3.9151   -1.1880 C   0  0  0  0  0  0  0  0  0  0  0  0
   -3.4714    0.7268   -1.8312 H   0  0  0  0  0  0  0  0  0  0  0  0
   -4.3166    1.6903   -0.6376 H   0  0  0  0  0  0  0  0  0  0  0  0
   -1.5029    2.0084    1.6186 H   0  0  0  0  0  0  0  0  0  0  0  0
   -3.2456    1.9110    1.5563 H   0  0  0  0  0  0  0  0  0  0  0  0
   -2.5281    4.2639    1.5107 H   0  0  0  0  0  0  0  0  0  0  0  0
   -3.3347    3.8506   -0.0218 H   0  0  0  0  0  0  0  0  0  0  0  0
   -2.6575   -1.5670   -1.2152 H   0  0  0  0  0  0  0  0  0  0  0  0
   -0.0574    2.4078    0.3160 H   0  0  0  0  0  0  0  0  0  0  0  0
   -5.5268    0.5752    1.1233 H   0  0  0  0  0  0  0  0  0  0  0  0
   -6.2763   -1.5292    2.1734 H   0  0  0  0  0  0  0  0  0  0  0  0
    2.1576    2.6183    1.0668 H   0  0  0  0  0  0  0  0  0  0  0  0
    0.8891   -0.8473   -1.2014 H   0  0  0  0  0  0  0  0  0  0  0  0
   -5.2213   -3.6801    1.5493 H   0  0  0  0  0  0  0  0  0  0  0  0
    4.3978    1.6713    1.2340 H   0  0  0  0  0  0  0  0  0  0  0  0
    3.1057   -1.7631   -1.0652 H   0  0  0  0  0  0  0  0  0  0  0  0
    6.5857    1.1322    0.2798 H   0  0  0  0  0  0  0  0  0  0  0  0
    5.0984   -2.9212    0.1569 H   0  0  0  0  0  0  0  0  0  0  0  0
   -0.3937    5.6407   -1.0306 H   0  0  0  0  0  0  0  0  0  0  0  0
   -1.3600    6.0434    0.4048 H   0  0  0  0  0  0  0  0  0  0  0  0
   -2.1666    5.6129   -1.1398 H   0  0  0  0  0  0  0  0  0  0  0  0
    8.4039   -0.6413    0.4028 H   0  0  0  0  0  0  0  0  0  0  0  0
   -2.6140   -3.5625   -2.1557 H   0  0  0  0  0  0  0  0  0  0  0  0
   -1.3831   -3.3325   -0.8352 H   0  0  0  0  0  0  0  0  0  0  0  0
   -1.8897   -4.9414   -1.3368 H   0  0  0  0  0  0  0  0  0  0  0  0
  1 12  1  0  0  0  0
  1 26  1  0  0  0  0
  2 11  2  0  0  0  0
  3 16  1  0  0  0  0
  3 28  1  0  0  0  0
  4  8  1  0  0  0  0
  4  9  1  0  0  0  0
  4 11  1  0  0  0  0
  5 11  1  0  0  0  0
  5 15  1  0  0  0  0
  5 36  1  0  0  0  0
  6  7  1  0  0  0  0
  6 25  1  0  0  0  0
  6 49  1  0  0  0  0
  7 27  2  0  0  0  0
  8 10  1  0  0  0  0
  8 29  1  0  0  0  0
  8 30  1  0  0  0  0
  9 12  1  0  0  0  0
  9 31  1  0  0  0  0
  9 32  1  0  0  0  0
 10 13  2  0  0  0  0
 10 14  1  0  0  0  0
 12 33  1  0  0  0  0
 12 34  1  0  0  0  0
 13 16  1  0  0  0  0
 13 35  1  0  0  0  0
 14 18  2  0  0  0  0
 14 37  1  0  0  0  0
 15 19  2  0  0  0  0
 15 20  1  0  0  0  0
 16 21  2  0  0  0  0
 17 22  2  0  0  0  0
 17 23  1  0  0  0  0
 17 24  1  0  0  0  0
 18 21  1  0  0  0  0
 18 38  1  0  0  0  0
 19 22  1  0  0  0  0
 19 39  1  0  0  0  0
 20 23  2  0  0  0  0
 20 40  1  0  0  0  0
 21 41  1  0  0  0  0
 22 42  1  0  0  0  0
 23 43  1  0  0  0  0
 24 25  2  0  0  0  0
 24 27  1  0  0  0  0
 25 44  1  0  0  0  0
 26 46  1  0  0  0  0
 26 47  1  0  0  0  0
 26 48  1  0  0  0  0
 27 45  1  0  0  0  0
 28 50  1  0  0  0  0
 28 51  1  0  0  0  0
 28 52  1  0  0  0  0
M  END
> <PUBCHEM_COMPOUND_CID>
68521380

> <PUBCHEM_CONFORMER_RMSD>
1

> <PUBCHEM_CONFORMER_DIVERSEORDER>
1
12
59
25
9
35
85
92
67
109
8
58
95
80
41
110
107
99
97
89
18
37
79
113
69
116
11
91
104
105
47
72
84
28
33
19
88
31
83
64
60
32
62
48
70
61
106
66
117
78
53
57
16
87
103
56
43
39
36
45
77
68
93
102
98
54
100
114
24
51
7
27
23
111
29
82
96
42
10
34
14
22
86
2
71
4
21
75
49
20
6
40
63
65
73
15
26
76
115
46
94
112
5
17
38
81
55
101
90
74
3
50
30
108
13
44
52

> <PUBCHEM_MMFF94_PARTIAL_CHARGES>
40
1 -0.56
10 -0.14
11 0.69
12 0.28
13 -0.15
14 -0.15
15 0.12
16 0.08
17 0.05
18 -0.15
19 -0.15
2 -0.57
20 -0.15
21 -0.15
22 -0.15
23 -0.15
24 -0.05
25 -0.3
26 0.28
27 0.14
28 0.28
3 -0.36
35 0.15
36 0.37
37 0.15
38 0.15
39 0.15
4 -0.66
40 0.15
41 0.15
42 0.15
43 0.15
44 0.15
45 0.15
49 0.27
5 -0.55
6 0.3
7 -0.71
8 0.44
9 0.3

> <PUBCHEM_EFFECTIVE_ROTOR_COUNT>
10

> <PUBCHEM_PHARMACOPHORE_FEATURES>
9
1 1 acceptor
1 2 acceptor
1 3 acceptor
1 5 donor
1 6 donor
1 7 acceptor
5 6 7 24 25 27 rings
6 10 13 14 16 18 21 rings
6 15 17 19 20 22 23 rings

> <PUBCHEM_HEAVY_ATOM_COUNT>
28

> <PUBCHEM_ATOM_DEF_STEREO_COUNT>
0

> <PUBCHEM_ATOM_UDEF_STEREO_COUNT>
0

> <PUBCHEM_BOND_DEF_STEREO_COUNT>
0

> <PUBCHEM_BOND_UDEF_STEREO_COUNT>
0

> <PUBCHEM_ISOTOPIC_ATOM_COUNT>
0

> <PUBCHEM_COMPONENT_COUNT>
1

> <PUBCHEM_CACTVS_TAUTO_COUNT>
2

> <PUBCHEM_CONFORMER_ID>
04158DA400000001

> <PUBCHEM_MMFF94_ENERGY>
83.9578

> <PUBCHEM_FEATURE_SELFOVERLAP>
45.673

> <PUBCHEM_SHAPE_FINGERPRINT>
10319688 45 18410013230127375961
11524674 6 17704352173716636255
117089 54 17825964890036846123
12107183 9 18269008630093740947
12760667 363 18411978083555511807
12895837 130 11167645612573297818
13009979 54 18260838106688670532
14251751 18 18410576210398574442
14341114 176 18412545435665671592
14844126 61 18409732846504342795
14856354 85 18413113870255498238
14950920 106 17703514410227604147
15042514 8 18410295791994524009
16110190 28 18341899639937631078
16994733 274 14691475866895822091
17780758 139 18342460339781363443
19246450 95 18269576978889671097
19311894 1 18267579285335461226
21403212 168 18342187640240743707
21796203 349 17829929690358151979
22956985 138 17906729563809158713
229767 44 18271817834526026003
23522609 53 18119564065360075180
23559900 14 18338506534359420465
2838139 119 9583525300001796098
4073 2 18339924806112417754
4409770 3 18334569098064703573
484985 159 18335417942310045243
5104073 3 18200868488384829072
5372103 7 13038085209055630219
56633871 153 18269279126718071035
56638632 33 17985268727738114009
6700243 42 17983612691370437436
8863177 126 18341609365232021666
9896288 288 18268998579110794609
999808 66 18041007253842544395

> <PUBCHEM_SHAPE_MULTIPOLES>
538.69
15.68
5.38
1.08
25.07
4.39
-0.06
-13.81
4.72
-6.93
-0.54
-0.98
-0.2
0.31

> <PUBCHEM_SHAPE_SELFOVERLAP>
1147.438

> <PUBCHEM_SHAPE_VOLUME>
300.4

> <PUBCHEM_COORDINATE_TYPE>
2
5
10

$$$$
68563058
  -OEChem-05102415093D

 56 58  0     0  0  0  0  0  0999 V2000
   -0.7928   -0.3928   -2.0172 O   0  0  0  0  0  0  0  0  0  0  0  0
   -2.7549   -4.4211    0.3278 O   0  0  0  0  0  0  0  0  0  0  0  0
   -2.2180    0.8533   -0.6849 N   0  0  0  0  0  0  0  0  0  0  0  0
   -2.8055    4.2901    0.6667 N   0  0  0  0  0  0  0  0  0  0  0  0
    0.1043    1.2499   -0.6354 N   0  0  0  0  0  0  0  0  0  0  0  0
    7.6115   -0.3022    0.4450 N   0  0  0  0  0  0  0  0  0  0  0  0
    7.3203   -1.5983    0.6489 N   0  0  0  0  0  0  0  0  0  0  0  0
   -2.4007    1.9044    0.3139 C   0  0  0  0  0  0  0  0  0  0  0  0
   -2.5968    3.2621   -0.3447 C   0  0  0  0  0  0  0  0  0  0  0  0
   -3.4358    0.1975   -1.1442 C   0  0  0  0  0  0  0  0  0  0  0  0
   -3.8070   -0.9700   -0.2763 C   0  0  0  0  0  0  0  0  0  0  0  0
   -0.9404    0.4950   -1.1746 C   0  0  0  0  0  0  0  0  0  0  0  0
   -3.0997   -2.1680   -0.3783 C   0  0  0  0  0  0  0  0  0  0  0  0
   -1.5308    4.6931    1.2642 C   0  0  0  0  0  0  0  0  0  0  0  0
   -3.4843    5.4521    0.0894 C   0  0  0  0  0  0  0  0  0  0  0  0
   -4.8598   -0.8565    0.6318 C   0  0  0  0  0  0  0  0  0  0  0  0
    1.4443    0.8423   -0.4200 C   0  0  0  0  0  0  0  0  0  0  0  0
   -3.4453   -3.2525    0.4279 C   0  0  0  0  0  0  0  0  0  0  0  0
   -5.2053   -1.9412    1.4379 C   0  0  0  0  0  0  0  0  0  0  0  0
   -4.4981   -3.1393    1.3358 C   0  0  0  0  0  0  0  0  0  0  0  0
    1.8439   -0.4499   -0.7610 C   0  0  0  0  0  0  0  0  0  0  0  0
    2.3634    1.7333    0.1343 C   0  0  0  0  0  0  0  0  0  0  0  0
    4.0818    0.0399    0.0063 C   0  0  0  0  0  0  0  0  0  0  0  0
    3.1626   -0.8511   -0.5478 C   0  0  0  0  0  0  0  0  0  0  0  0
    3.6822    1.3320    0.3475 C   0  0  0  0  0  0  0  0  0  0  0  0
    5.4393   -0.3733    0.2263 C   0  0  0  0  0  0  0  0  0  0  0  0
    6.5198    0.4740    0.1879 C   0  0  0  0  0  0  0  0  0  0  0  0
    5.9920   -1.6356    0.5141 C   0  0  0  0  0  0  0  0  0  0  0  0
   -1.6903   -4.4669   -0.6213 C   0  0  0  0  0  0  0  0  0  0  0  0
   -3.2787    1.6554    0.9230 H   0  0  0  0  0  0  0  0  0  0  0  0
   -1.5591    1.8937    1.0123 H   0  0  0  0  0  0  0  0  0  0  0  0
   -1.7668    3.5136   -1.0174 H   0  0  0  0  0  0  0  0  0  0  0  0
   -3.4848    3.1889   -0.9869 H   0  0  0  0  0  0  0  0  0  0  0  0
   -3.2832   -0.1617   -2.1697 H   0  0  0  0  0  0  0  0  0  0  0  0
   -4.2483    0.9315   -1.2003 H   0  0  0  0  0  0  0  0  0  0  0  0
   -0.0986    2.1933   -0.3210 H   0  0  0  0  0  0  0  0  0  0  0  0
   -2.3014   -2.2137   -1.1085 H   0  0  0  0  0  0  0  0  0  0  0  0
   -0.8325    5.0941    0.5203 H   0  0  0  0  0  0  0  0  0  0  0  0
   -1.6955    5.4656    2.0243 H   0  0  0  0  0  0  0  0  0  0  0  0
   -1.0432    3.8618    1.7821 H   0  0  0  0  0  0  0  0  0  0  0  0
   -3.6613    6.2150    0.8559 H   0  0  0  0  0  0  0  0  0  0  0  0
   -2.9057    5.9062   -0.7232 H   0  0  0  0  0  0  0  0  0  0  0  0
   -4.4686    5.1702   -0.3010 H   0  0  0  0  0  0  0  0  0  0  0  0
   -5.4192    0.0708    0.7218 H   0  0  0  0  0  0  0  0  0  0  0  0
   -6.0249   -1.8530    2.1450 H   0  0  0  0  0  0  0  0  0  0  0  0
    1.1696   -1.1916   -1.1715 H   0  0  0  0  0  0  0  0  0  0  0  0
    2.0635    2.7419    0.4074 H   0  0  0  0  0  0  0  0  0  0  0  0
   -4.7719   -3.9807    1.9664 H   0  0  0  0  0  0  0  0  0  0  0  0
    3.4493   -1.8634   -0.8223 H   0  0  0  0  0  0  0  0  0  0  0  0
    4.3683    2.0477    0.7933 H   0  0  0  0  0  0  0  0  0  0  0  0
    6.6253    1.5336   -0.0004 H   0  0  0  0  0  0  0  0  0  0  0  0
    5.4892   -2.5849    0.6352 H   0  0  0  0  0  0  0  0  0  0  0  0
    8.5809   -0.0147    0.4945 H   0  0  0  0  0  0  0  0  0  0  0  0
   -1.2489   -5.4673   -0.5630 H   0  0  0  0  0  0  0  0  0  0  0  0
   -0.8969   -3.7537   -0.3725 H   0  0  0  0  0  0  0  0  0  0  0  0
   -2.0580   -4.3401   -1.6453 H   0  0  0  0  0  0  0  0  0  0  0  0
  1 12  2  0  0  0  0
  2 18  1  0  0  0  0
  2 29  1  0  0  0  0
  3  8  1  0  0  0  0
  3 10  1  0  0  0  0
  3 12  1  0  0  0  0
  4  9  1  0  0  0  0
  4 14  1  0  0  0  0
  4 15  1  0  0  0  0
  5 12  1  0  0  0  0
  5 17  1  0  0  0  0
  5 36  1  0  0  0  0
  6  7  1  0  0  0  0
  6 27  1  0  0  0  0
  6 53  1  0  0  0  0
  7 28  2  0  0  0  0
  8  9  1  0  0  0  0
  8 30  1  0  0  0  0
  8 31  1  0  0  0  0
  9 32  1  0  0  0  0
  9 33  1  0  0  0  0
 10 11  1  0  0  0  0
 10 34  1  0  0  0  0
 10 35  1  0  0  0  0
 11 13  2  0  0  0  0
 11 16  1  0  0  0  0
 13 18  1  0  0  0  0
 13 37  1  0  0  0  0
 14 38  1  0  0  0  0
 14 39  1  0  0  0  0
 14 40  1  0  0  0  0
 15 41  1  0  0  0  0
 15 42  1  0  0  0  0
 15 43  1  0  0  0  0
 16 19  2  0  0  0  0
 16 44  1  0  0  0  0
 17 21  2  0  0  0  0
 17 22  1  0  0  0  0
 18 20  2  0  0  0  0
 19 20  1  0  0  0  0
 19 45  1  0  0  0  0
 20 48  1  0  0  0  0
 21 24  1  0  0  0  0
 21 46  1  0  0  0  0
 22 25  2  0  0  0  0
 22 47  1  0  0  0  0
 23 24  2  0  0  0  0
 23 25  1  0  0  0  0
 23 26  1  0  0  0  0
 24 49  1  0  0  0  0
 25 50  1  0  0  0  0
 26 27  2  0  0  0  0
 26 28  1  0  0  0  0
 27 51  1  0  0  0  0
 28 52  1  0  0  0  0
 29 54  1  0  0  0  0
 29 55  1  0  0  0  0
 29 56  1  0  0  0  0
M  END
> <PUBCHEM_COMPOUND_CID>
68563058

> <PUBCHEM_CONFORMER_RMSD>
1

> <PUBCHEM_CONFORMER_DIVERSEORDER>
1
32
147
4
103
90
22
91
111
31
127
89
106
45
66
151
115
100
134
27
122
84
158
139
49
33
73
143
28
150
34
109
128
92
85
155
138
5
94
76
149
46
104
65
112
141
107
50
48
97
44
21
52
53
63
121
146
9
47
70
57
14
130
87
43
86
56
58
12
144
118
6
37
117
67
62
80
102
148
83
99
157
137
81
154
133
114
8
7
126
39
82
132
119
40
125
123
98
2
41
110
11
30
51
20
36
10
55
77
78
35
108
13
16
54
60
69
145
59
75
24
96
131
25
135
93
42
72
19
38
74
142
68
124
156
95
113
88
17
136
64
79
23
101
3
159
105
26
129
152
140
153
15
18
29
61
71
116
120

> <PUBCHEM_MMFF94_PARTIAL_CHARGES>
41
1 -0.57
10 0.44
11 -0.14
12 0.69
13 -0.15
14 0.27
15 0.27
16 -0.15
17 0.12
18 0.08
19 -0.15
2 -0.36
20 -0.15
21 -0.15
22 -0.15
23 0.05
24 -0.15
25 -0.15
26 -0.05
27 -0.3
28 0.14
29 0.28
3 -0.66
36 0.37
37 0.15
4 -0.81
44 0.15
45 0.15
46 0.15
47 0.15
48 0.15
49 0.15
5 -0.55
50 0.15
51 0.15
52 0.15
53 0.27
6 0.3
7 -0.71
8 0.3
9 0.27

> <PUBCHEM_EFFECTIVE_ROTOR_COUNT>
10

> <PUBCHEM_PHARMACOPHORE_FEATURES>
9
1 1 acceptor
1 2 acceptor
1 4 cation
1 5 donor
1 6 donor
1 7 acceptor
5 6 7 26 27 28 rings
6 11 13 16 18 19 20 rings
6 17 21 22 23 24 25 rings

> <PUBCHEM_HEAVY_ATOM_COUNT>
29

> <PUBCHEM_ATOM_DEF_STEREO_COUNT>
0

> <PUBCHEM_ATOM_UDEF_STEREO_COUNT>
0

> <PUBCHEM_BOND_DEF_STEREO_COUNT>
0

> <PUBCHEM_BOND_UDEF_STEREO_COUNT>
0

> <PUBCHEM_ISOTOPIC_ATOM_COUNT>
0

> <PUBCHEM_COMPONENT_COUNT>
1

> <PUBCHEM_CACTVS_TAUTO_COUNT>
2

> <PUBCHEM_CONFORMER_ID>
0416307200000001

> <PUBCHEM_MMFF94_ENERGY>
85.3166

> <PUBCHEM_FEATURE_SELFOVERLAP>
45.671

> <PUBCHEM_SHAPE_FINGERPRINT>
11377469 6 17748828548425025077
117089 54 17462017762118847163
12760667 363 18337104665934975783
12788726 201 18263383510513844941
13008946 335 17766577750364663233
13073987 5 18410569575259521704
13540713 4 17700990854810880284
14415360 78 17613148577407989029
14844126 61 18409169913688553699
14856354 85 18341899631727232310
14950920 106 17916311712997691187
15439362 3 17474386877215402397
15927050 60 17908705025959522845
16110190 28 18337957908143108310
17780758 139 18408322189928203791
21796203 349 17612631051266385251
22956985 138 17616812575575137189
23559900 14 18263351646062045517
2838139 119 10447940459791947778
3418910 222 18335425729408571788
4073 2 18338797806820606246
4409770 3 18335134277174573741
5104073 3 18339912733254910704
5372103 7 13325755942315467507
59755656 520 18191578649790654069
79837 15 18124887750490651729
8863177 126 18337950216378511266
9896288 288 18339083674963395963
999808 66 17749395896441301731

> <PUBCHEM_SHAPE_MULTIPOLES>
560.16
15.62
6.4
1.17
32.02
5.23
-0.1
-8.69
5.26
-12.62
1.76
-0.94
-0.14
0.45

> <PUBCHEM_SHAPE_SELFOVERLAP>
1187.504

> <PUBCHEM_SHAPE_VOLUME>
315.9

> <PUBCHEM_COORDINATE_TYPE>
2
5
10

$$$$
68567556
  -OEChem-05102415093D

 60 63  0     0  0  0  0  0  0999 V2000
   -0.4979    1.0444    2.0633 O   0  0  0  0  0  0  0  0  0  0  0  0
   -2.0228    5.0841   -0.5873 O   0  0  0  0  0  0  0  0  0  0  0  0
   -3.0347   -3.5661   -0.2179 N   0  0  0  0  0  0  0  0  0  0  0  0
   -2.1035   -0.1268    0.8358 N   0  0  0  0  0  0  0  0  0  0  0  0
    0.1557   -0.7995    0.8040 N   0  0  0  0  0  0  0  0  0  0  0  0
    7.7730   -0.2973   -0.4830 N   0  0  0  0  0  0  0  0  0  0  0  0
    7.6425    1.0061   -0.7835 N   0  0  0  0  0  0  0  0  0  0  0  0
   -3.7422   -4.6727    0.4256 C   0  0  0  0  0  0  0  0  0  0  0  0
   -1.8223   -4.1641   -0.7761 C   0  0  0  0  0  0  0  0  0  0  0  0
   -3.5917   -5.8038   -0.5809 C   0  0  0  0  0  0  0  0  0  0  0  0
   -2.3279   -5.4715   -1.3682 C   0  0  0  0  0  0  0  0  0  0  0  0
   -2.7439   -2.4803    0.7065 C   0  0  0  0  0  0  0  0  0  0  0  0
   -2.4040   -1.2104   -0.0598 C   0  0  0  0  0  0  0  0  0  0  0  0
   -3.2328    0.7128    1.2538 C   0  0  0  0  0  0  0  0  0  0  0  0
   -0.7742    0.1202    1.2954 C   0  0  0  0  0  0  0  0  0  0  0  0
   -3.4748    1.8453    0.2984 C   0  0  0  0  0  0  0  0  0  0  0  0
   -2.6259    2.9521    0.2990 C   0  0  0  0  0  0  0  0  0  0  0  0
   -4.5492    1.7907   -0.5897 C   0  0  0  0  0  0  0  0  0  0  0  0
    1.5312   -0.5825    0.5418 C   0  0  0  0  0  0  0  0  0  0  0  0
   -2.8514    4.0044   -0.5884 C   0  0  0  0  0  0  0  0  0  0  0  0
   -4.7747    2.8430   -1.4770 C   0  0  0  0  0  0  0  0  0  0  0  0
   -3.9259    3.9499   -1.4763 C   0  0  0  0  0  0  0  0  0  0  0  0
    2.0970    0.6708    0.7765 C   0  0  0  0  0  0  0  0  0  0  0  0
    2.3191   -1.6220    0.0475 C   0  0  0  0  0  0  0  0  0  0  0  0
    4.2387   -0.1553    0.0229 C   0  0  0  0  0  0  0  0  0  0  0  0
    3.4507    0.8843    0.5171 C   0  0  0  0  0  0  0  0  0  0  0  0
    3.6728   -1.4084   -0.2120 C   0  0  0  0  0  0  0  0  0  0  0  0
    5.6322    0.0648   -0.2446 C   0  0  0  0  0  0  0  0  0  0  0  0
    6.5985   -0.9072   -0.1534 C   0  0  0  0  0  0  0  0  0  0  0  0
    6.3325    1.2215   -0.6361 C   0  0  0  0  0  0  0  0  0  0  0  0
   -0.9442    5.0736    0.3469 C   0  0  0  0  0  0  0  0  0  0  0  0
   -3.2716   -4.9558    1.3760 H   0  0  0  0  0  0  0  0  0  0  0  0
   -4.7949   -4.4384    0.6127 H   0  0  0  0  0  0  0  0  0  0  0  0
   -1.3574   -3.5398   -1.5452 H   0  0  0  0  0  0  0  0  0  0  0  0
   -1.0751   -4.3764   -0.0006 H   0  0  0  0  0  0  0  0  0  0  0  0
   -4.4523   -5.8387   -1.2591 H   0  0  0  0  0  0  0  0  0  0  0  0
   -3.5161   -6.7763   -0.0839 H   0  0  0  0  0  0  0  0  0  0  0  0
   -1.5788   -6.2655   -1.2859 H   0  0  0  0  0  0  0  0  0  0  0  0
   -2.5739   -5.3497   -2.4296 H   0  0  0  0  0  0  0  0  0  0  0  0
   -3.6360   -2.2763    1.3137 H   0  0  0  0  0  0  0  0  0  0  0  0
   -1.9549   -2.7514    1.4194 H   0  0  0  0  0  0  0  0  0  0  0  0
   -1.5805   -1.3615   -0.7648 H   0  0  0  0  0  0  0  0  0  0  0  0
   -3.2565   -0.9203   -0.6872 H   0  0  0  0  0  0  0  0  0  0  0  0
   -3.0160    1.1278    2.2458 H   0  0  0  0  0  0  0  0  0  0  0  0
   -4.1249    0.0868    1.3734 H   0  0  0  0  0  0  0  0  0  0  0  0
   -0.1662   -1.7339    0.5739 H   0  0  0  0  0  0  0  0  0  0  0  0
   -1.8151    2.9562    1.0168 H   0  0  0  0  0  0  0  0  0  0  0  0
   -5.2181    0.9342   -0.6013 H   0  0  0  0  0  0  0  0  0  0  0  0
   -5.6110    2.8006   -2.1685 H   0  0  0  0  0  0  0  0  0  0  0  0
   -4.1066    4.7666   -2.1699 H   0  0  0  0  0  0  0  0  0  0  0  0
    1.5302    1.5209    1.1361 H   0  0  0  0  0  0  0  0  0  0  0  0
    1.8892   -2.6022   -0.1429 H   0  0  0  0  0  0  0  0  0  0  0  0
    3.8679    1.8700    0.7086 H   0  0  0  0  0  0  0  0  0  0  0  0
    4.2540   -2.2368   -0.6091 H   0  0  0  0  0  0  0  0  0  0  0  0
    6.5743   -1.9544    0.1154 H   0  0  0  0  0  0  0  0  0  0  0  0
    5.9502    2.2150   -0.8246 H   0  0  0  0  0  0  0  0  0  0  0  0
   -0.3860    6.0050    0.2057 H   0  0  0  0  0  0  0  0  0  0  0  0
   -0.2475    4.2515    0.1496 H   0  0  0  0  0  0  0  0  0  0  0  0
   -1.3067    5.0729    1.3805 H   0  0  0  0  0  0  0  0  0  0  0  0
    8.6974   -0.7083   -0.5216 H   0  0  0  0  0  0  0  0  0  0  0  0
  1 15  2  0  0  0  0
  2 20  1  0  0  0  0
  2 31  1  0  0  0  0
  3  8  1  0  0  0  0
  3  9  1  0  0  0  0
  3 12  1  0  0  0  0
  4 13  1  0  0  0  0
  4 14  1  0  0  0  0
  4 15  1  0  0  0  0
  5 15  1  0  0  0  0
  5 19  1  0  0  0  0
  5 46  1  0  0  0  0
  6  7  1  0  0  0  0
  6 29  1  0  0  0  0
  6 60  1  0  0  0  0
  7 30  2  0  0  0  0
  8 10  1  0  0  0  0
  8 32  1  0  0  0  0
  8 33  1  0  0  0  0
  9 11  1  0  0  0  0
  9 34  1  0  0  0  0
  9 35  1  0  0  0  0
 10 11  1  0  0  0  0
 10 36  1  0  0  0  0
 10 37  1  0  0  0  0
 11 38  1  0  0  0  0
 11 39  1  0  0  0  0
 12 13  1  0  0  0  0
 12 40  1  0  0  0  0
 12 41  1  0  0  0  0
 13 42  1  0  0  0  0
 13 43  1  0  0  0  0
 14 16  1  0  0  0  0
 14 44  1  0  0  0  0
 14 45  1  0  0  0  0
 16 17  2  0  0  0  0
 16 18  1  0  0  0  0
 17 20  1  0  0  0  0
 17 47  1  0  0  0  0
 18 21  2  0  0  0  0
 18 48  1  0  0  0  0
 19 23  2  0  0  0  0
 19 24  1  0  0  0  0
 20 22  2  0  0  0  0
 21 22  1  0  0  0  0
 21 49  1  0  0  0  0
 22 50  1  0  0  0  0
 23 26  1  0  0  0  0
 23 51  1  0  0  0  0
 24 27  2  0  0  0  0
 24 52  1  0  0  0  0
 25 26  2  0  0  0  0
 25 27  1  0  0  0  0
 25 28  1  0  0  0  0
 26 53  1  0  0  0  0
 27 54  1  0  0  0  0
 28 29  2  0  0  0  0
 28 30  1  0  0  0  0
 29 55  1  0  0  0  0
 30 56  1  0  0  0  0
 31 57  1  0  0  0  0
 31 58  1  0  0  0  0
 31 59  1  0  0  0  0
M  END
> <PUBCHEM_COMPOUND_CID>
68567556

> <PUBCHEM_CONFORMER_RMSD>
1

> <PUBCHEM_CONFORMER_DIVERSEORDER>
1
161
66
55
164
32
71
65
72
52
149
118
28
162
160
116
139
56
38
152
33
121
86
91
104
48
151
30
98
43
36
155
73
113
54
168
53
6
143
87
89
103
128
99
117
50
10
108
134
62
129
35
80
39
167
29
77
68
15
64
140
158
88
92
11
159
31
142
16
4
132
126
135
58
26
148
23
75
9
125
144
111
81
69
17
169
100
25
102
44
19
138
171
22
94
57
7
147
13
165
130
137
82
20
95
122
141
21
105
8
106
101
150
74
93
146
47
78
45
90
131
60
3
18
96
34
133
170
156
127
119
83
76
157
14
24
85
145
115
2
124
79
41
153
59
63
154
110
120
163
97
107
109
12
37
67
112
46
70
5
84
114
166
136
123
27
40
51
61
42
49

> <PUBCHEM_MMFF94_PARTIAL_CHARGES>
41
1 -0.57
12 0.27
13 0.3
14 0.44
15 0.69
16 -0.14
17 -0.15
18 -0.15
19 0.12
2 -0.36
20 0.08
21 -0.15
22 -0.15
23 -0.15
24 -0.15
25 0.05
26 -0.15
27 -0.15
28 -0.05
29 -0.3
3 -0.81
30 0.14
31 0.28
4 -0.66
46 0.37
47 0.15
48 0.15
49 0.15
5 -0.55
50 0.15
51 0.15
52 0.15
53 0.15
54 0.15
55 0.15
56 0.15
6 0.3
60 0.27
7 -0.71
8 0.27
9 0.27

> <PUBCHEM_EFFECTIVE_ROTOR_COUNT>
11

> <PUBCHEM_PHARMACOPHORE_FEATURES>
10
1 1 acceptor
1 2 acceptor
1 3 cation
1 5 donor
1 6 donor
1 7 acceptor
5 3 8 9 10 11 rings
5 6 7 28 29 30 rings
6 16 17 18 20 21 22 rings
6 19 23 24 25 26 27 rings

> <PUBCHEM_HEAVY_ATOM_COUNT>
31

> <PUBCHEM_ATOM_DEF_STEREO_COUNT>
0

> <PUBCHEM_ATOM_UDEF_STEREO_COUNT>
0

> <PUBCHEM_BOND_DEF_STEREO_COUNT>
0

> <PUBCHEM_BOND_UDEF_STEREO_COUNT>
0

> <PUBCHEM_ISOTOPIC_ATOM_COUNT>
0

> <PUBCHEM_COMPONENT_COUNT>
1

> <PUBCHEM_CACTVS_TAUTO_COUNT>
2

> <PUBCHEM_CONFORMER_ID>
0416420400000001

> <PUBCHEM_MMFF94_ENERGY>
83.2

> <PUBCHEM_FEATURE_SELFOVERLAP>
50.747

> <PUBCHEM_SHAPE_FINGERPRINT>
10290309 65 18196099849829649259
11297750 10 17985258823222003259
11763715 3 18046079412397066222
11991303 11 18412259506460086094
12788726 201 18188197789174305747
13540713 4 17844232128937983704
13690498 29 18339082712848906906
13911987 19 18264194821916590149
14114206 34 18124011666950886415
14508225 48 18195521730584436111
14675019 173 18048322429926407811
15064981 113 18049422765543605476
15198563 99 18338509872060505271
15297060 5 18197495130565767185
15444296 7 17968388904832606597
15463212 79 18260827068643695507
15803439 3 18193253236301223255
15876981 60 18188496885873986756
16087824 20 18409731769227511883
16628084 112 18339914940679333207
19427546 20 18410014372614829414
19958102 18 18197503922278549076
20101258 96 18191312782777097707
20505436 4 17968093067221202403
20771845 165 18194130611619140854
20775438 99 17622396879622507301
255183 451 17764584718093622855
3103668 31 18337664334781523839
376196 1 17609213451436684401
4046055 25 17837770397791319903
4394409 98 17545344989806695750
4409770 3 18411698799228679147
44249763 50 18412254056832233536
44802255 64 18337115570429639895
531348 171 18335986385416180434
563151 97 18187086170171053978
6700243 42 17768570314388367726
6898599 12 18408888425557922132

> <PUBCHEM_SHAPE_MULTIPOLES>
601.32
15.01
8.48
1.24
38.01
5.72
-0.09
-2.63
5.1
-19.12
3.36
-0.94
-0.27
0.68

> <PUBCHEM_SHAPE_SELFOVERLAP>
1286.829

> <PUBCHEM_SHAPE_VOLUME>
335.7

> <PUBCHEM_COORDINATE_TYPE>
2
5
10

$$$$
68563892
  -OEChem-05102415093D

 63 66  0     0  0  0  0  0  0999 V2000
    0.8474   -1.3169    2.1055 O   0  0  0  0  0  0  0  0  0  0  0  0
    3.0421   -4.6622   -1.0031 O   0  0  0  0  0  0  0  0  0  0  0  0
    1.3988    4.1804   -0.3822 N   0  0  0  0  0  0  0  0  0  0  0  0
    2.2385    0.2563    1.0822 N   0  0  0  0  0  0  0  0  0  0  0  0
   -0.1015    0.5422    1.0779 N   0  0  0  0  0  0  0  0  0  0  0  0
   -7.5202   -1.0450   -0.4645 N   0  0  0  0  0  0  0  0  0  0  0  0
   -7.1708   -2.2575   -0.9271 N   0  0  0  0  0  0  0  0  0  0  0  0
    0.2611    4.7265    0.3573 C   0  0  0  0  0  0  0  0  0  0  0  0
    1.6260    5.1212   -1.4785 C   0  0  0  0  0  0  0  0  0  0  0  0
   -0.6808    5.1771   -0.7496 C   0  0  0  0  0  0  0  0  0  0  0  0
    0.2158    5.4331   -1.9571 C   0  0  0  0  0  0  0  0  0  0  0  0
    2.5761    4.0095    0.4564 C   0  0  0  0  0  0  0  0  0  0  0  0
    2.4763    2.7049    1.2485 C   0  0  0  0  0  0  0  0  0  0  0  0
    2.3560    1.4829    0.3424 C   0  0  0  0  0  0  0  0  0  0  0  0
    3.4912   -0.4315    1.4181 C   0  0  0  0  0  0  0  0  0  0  0  0
    0.9676   -0.2668    1.4709 C   0  0  0  0  0  0  0  0  0  0  0  0
    3.9245   -1.3723    0.3312 C   0  0  0  0  0  0  0  0  0  0  0  0
    3.2740   -2.5952    0.1664 C   0  0  0  0  0  0  0  0  0  0  0  0
    4.9782   -1.0234   -0.5136 C   0  0  0  0  0  0  0  0  0  0  0  0
   -1.4198    0.1361    0.7534 C   0  0  0  0  0  0  0  0  0  0  0  0
    3.6773   -3.4691   -0.8430 C   0  0  0  0  0  0  0  0  0  0  0  0
    5.3815   -1.8974   -1.5230 C   0  0  0  0  0  0  0  0  0  0  0  0
    4.7311   -3.1204   -1.6878 C   0  0  0  0  0  0  0  0  0  0  0  0
   -1.7678   -1.2136    0.8095 C   0  0  0  0  0  0  0  0  0  0  0  0
   -2.3691    1.0860    0.3768 C   0  0  0  0  0  0  0  0  0  0  0  0
   -4.0145   -0.6631    0.1124 C   0  0  0  0  0  0  0  0  0  0  0  0
   -3.0651   -1.6131    0.4889 C   0  0  0  0  0  0  0  0  0  0  0  0
   -3.6665    0.6864    0.0562 C   0  0  0  0  0  0  0  0  0  0  0  0
   -5.3500   -1.0744   -0.2181 C   0  0  0  0  0  0  0  0  0  0  0  0
   -6.4664   -0.2971   -0.0279 C   0  0  0  0  0  0  0  0  0  0  0  0
    1.9731   -4.9542   -0.1042 C   0  0  0  0  0  0  0  0  0  0  0  0
   -5.8440   -2.2697   -0.7740 C   0  0  0  0  0  0  0  0  0  0  0  0
   -0.2160    3.9853    1.0053 H   0  0  0  0  0  0  0  0  0  0  0  0
    0.5466    5.5919    0.9691 H   0  0  0  0  0  0  0  0  0  0  0  0
    2.1117    6.0411   -1.1278 H   0  0  0  0  0  0  0  0  0  0  0  0
    2.2349    4.6867   -2.2775 H   0  0  0  0  0  0  0  0  0  0  0  0
   -1.2389    6.0737   -0.4617 H   0  0  0  0  0  0  0  0  0  0  0  0
   -1.4070    4.3911   -0.9880 H   0  0  0  0  0  0  0  0  0  0  0  0
   -0.0720    4.7681   -2.7798 H   0  0  0  0  0  0  0  0  0  0  0  0
    0.1315    6.4647   -2.3137 H   0  0  0  0  0  0  0  0  0  0  0  0
    2.7319    4.8587    1.1333 H   0  0  0  0  0  0  0  0  0  0  0  0
    3.4741    3.9440   -0.1723 H   0  0  0  0  0  0  0  0  0  0  0  0
    1.6361    2.7506    1.9514 H   0  0  0  0  0  0  0  0  0  0  0  0
    3.3756    2.6080    1.8700 H   0  0  0  0  0  0  0  0  0  0  0  0
    3.2479    1.4214   -0.2936 H   0  0  0  0  0  0  0  0  0  0  0  0
    1.5244    1.5774   -0.3630 H   0  0  0  0  0  0  0  0  0  0  0  0
    3.3431   -1.0036    2.3423 H   0  0  0  0  0  0  0  0  0  0  0  0
    4.2635    0.3142    1.6409 H   0  0  0  0  0  0  0  0  0  0  0  0
    0.0603    1.5386    0.9773 H   0  0  0  0  0  0  0  0  0  0  0  0
    2.4722   -2.8284    0.8560 H   0  0  0  0  0  0  0  0  0  0  0  0
    5.4935   -0.0737   -0.3968 H   0  0  0  0  0  0  0  0  0  0  0  0
    6.2018   -1.6258   -2.1810 H   0  0  0  0  0  0  0  0  0  0  0  0
    5.0497   -3.7970   -2.4759 H   0  0  0  0  0  0  0  0  0  0  0  0
   -1.0676   -1.9976    1.0713 H   0  0  0  0  0  0  0  0  0  0  0  0
   -2.1102    2.1404    0.3264 H   0  0  0  0  0  0  0  0  0  0  0  0
   -3.3114   -2.6710    0.5405 H   0  0  0  0  0  0  0  0  0  0  0  0
   -4.3769    1.4518   -0.2458 H   0  0  0  0  0  0  0  0  0  0  0  0
   -6.6199    0.6949    0.3743 H   0  0  0  0  0  0  0  0  0  0  0  0
   -5.2992   -3.1523   -1.0789 H   0  0  0  0  0  0  0  0  0  0  0  0
    1.5802   -5.9385   -0.3791 H   0  0  0  0  0  0  0  0  0  0  0  0
    1.1488   -4.2406   -0.2121 H   0  0  0  0  0  0  0  0  0  0  0  0
    2.3258   -5.0293    0.9301 H   0  0  0  0  0  0  0  0  0  0  0  0
   -8.5003   -0.7919   -0.4741 H   0  0  0  0  0  0  0  0  0  0  0  0
  1 16  2  0  0  0  0
  2 21  1  0  0  0  0
  2 31  1  0  0  0  0
  3  8  1  0  0  0  0
  3  9  1  0  0  0  0
  3 12  1  0  0  0  0
  4 14  1  0  0  0  0
  4 15  1  0  0  0  0
  4 16  1  0  0  0  0
  5 16  1  0  0  0  0
  5 20  1  0  0  0  0
  5 49  1  0  0  0  0
  6  7  1  0  0  0  0
  6 30  1  0  0  0  0
  6 63  1  0  0  0  0
  7 32  2  0  0  0  0
  8 10  1  0  0  0  0
  8 33  1  0  0  0  0
  8 34  1  0  0  0  0
  9 11  1  0  0  0  0
  9 35  1  0  0  0  0
  9 36  1  0  0  0  0
 10 11  1  0  0  0  0
 10 37  1  0  0  0  0
 10 38  1  0  0  0  0
 11 39  1  0  0  0  0
 11 40  1  0  0  0  0
 12 13  1  0  0  0  0
 12 41  1  0  0  0  0
 12 42  1  0  0  0  0
 13 14  1  0  0  0  0
 13 43  1  0  0  0  0
 13 44  1  0  0  0  0
 14 45  1  0  0  0  0
 14 46  1  0  0  0  0
 15 17  1  0  0  0  0
 15 47  1  0  0  0  0
 15 48  1  0  0  0  0
 17 18  2  0  0  0  0
 17 19  1  0  0  0  0
 18 21  1  0  0  0  0
 18 50  1  0  0  0  0
 19 22  2  0  0  0  0
 19 51  1  0  0  0  0
 20 24  2  0  0  0  0
 20 25  1  0  0  0  0
 21 23  2  0  0  0  0
 22 23  1  0  0  0  0
 22 52  1  0  0  0  0
 23 53  1  0  0  0  0
 24 27  1  0  0  0  0
 24 54  1  0  0  0  0
 25 28  2  0  0  0  0
 25 55  1  0  0  0  0
 26 27  2  0  0  0  0
 26 28  1  0  0  0  0
 26 29  1  0  0  0  0
 27 56  1  0  0  0  0
 28 57  1  0  0  0  0
 29 30  2  0  0  0  0
 29 32  1  0  0  0  0
 30 58  1  0  0  0  0
 31 60  1  0  0  0  0
 31 61  1  0  0  0  0
 31 62  1  0  0  0  0
 32 59  1  0  0  0  0
M  END
> <PUBCHEM_COMPOUND_CID>
68563892

> <PUBCHEM_CONFORMER_RMSD>
1.2

> <PUBCHEM_CONFORMER_DIVERSEORDER>
1
96
112
60
38
109
82
51
36
41
88
18
83
105
10
86
43
35
71
42
110
59
52
32
85
106
101
87
7
79
95
58
124
121
80
113
100
57
34
46
9
30
62
84
98
17
49
118
16
69
53
28
111
54
97
48
78
63
66
125
81
117
115
92
104
91
89
75
20
23
116
8
56
68
103
93
64
27
37
77
74
67
108
114
22
6
47
40
123
55
21
73
3
29
5
99
11
19
119
94
15
61
50
65
39
102
72
44
4
107
122
13
31
14
90
70
120
2
33
76
12
26
24
25
45

> <PUBCHEM_MMFF94_PARTIAL_CHARGES>
41
1 -0.57
12 0.27
14 0.3
15 0.44
16 0.69
17 -0.14
18 -0.15
19 -0.15
2 -0.36
20 0.12
21 0.08
22 -0.15
23 -0.15
24 -0.15
25 -0.15
26 0.05
27 -0.15
28 -0.15
29 -0.05
3 -0.81
30 -0.3
31 0.28
32 0.14
4 -0.66
49 0.37
5 -0.55
50 0.15
51 0.15
52 0.15
53 0.15
54 0.15
55 0.15
56 0.15
57 0.15
58 0.15
59 0.15
6 0.3
63 0.27
7 -0.71
8 0.27
9 0.27

> <PUBCHEM_EFFECTIVE_ROTOR_COUNT>
12

> <PUBCHEM_PHARMACOPHORE_FEATURES>
10
1 1 acceptor
1 2 acceptor
1 3 cation
1 5 donor
1 6 donor
1 7 acceptor
5 3 8 9 10 11 rings
5 6 7 29 30 32 rings
6 17 18 19 21 22 23 rings
6 20 24 25 26 27 28 rings

> <PUBCHEM_HEAVY_ATOM_COUNT>
32

> <PUBCHEM_ATOM_DEF_STEREO_COUNT>
0

> <PUBCHEM_ATOM_UDEF_STEREO_COUNT>
0

> <PUBCHEM_BOND_DEF_STEREO_COUNT>
0

> <PUBCHEM_BOND_UDEF_STEREO_COUNT>
0

> <PUBCHEM_ISOTOPIC_ATOM_COUNT>
0

> <PUBCHEM_COMPONENT_COUNT>
1

> <PUBCHEM_CACTVS_TAUTO_COUNT>
2

> <PUBCHEM_CONFORMER_ID>
041633B400000001

> <PUBCHEM_MMFF94_ENERGY>
83.0448

> <PUBCHEM_FEATURE_SELFOVERLAP>
50.747

> <PUBCHEM_SHAPE_FINGERPRINT>
11297010 23 17975402822882401717
11386260 185 18335971065621302789
12788726 201 17971482793219261416
1361 2 18340768247073364106
13617811 41 18409164390176552943
14251757 5 17832994845319579324
15420108 30 17546707710263256432
15484559 13 18267871760571470094
15664445 248 18335414698903056754
16988056 13 18335985371450580940
16991981 162 17759805840456774276
23559900 14 18339357590929482739
24771750 20 17827653752517403341
255183 451 18342179972589847053
3103668 31 17973158435971577557
3388396 114 17974326255217704700
3534868 343 18270121352730461913
4017518 198 17909840070206160348
4046055 25 18342460292589730233
4066623 53 18260263041270810524
4144715 1 18261956349607515657
4173938 77 18339640148333281087
46194498 28 18408880775946971542
53794403 172 18264489675056784711
6609424 69 17024565984518721549
9831232 110 18413102862745448311

> <PUBCHEM_SHAPE_MULTIPOLES>
621.9
13.93
8.47
1.52
25.06
11.43
0.08
-17.69
5.13
-7.85
4.63
-1.31
0.39
1.12

> <PUBCHEM_SHAPE_SELFOVERLAP>
1325.176

> <PUBCHEM_SHAPE_VOLUME>
348.6

> <PUBCHEM_COORDINATE_TYPE>
2
5
10

$$$$
68561431
  -OEChem-05102415093D

 61 64  0     0  0  0  0  0  0999 V2000
   -3.3223   -5.8309   -0.8248 O   0  0  0  0  0  0  0  0  0  0  0  0
   -0.2610    1.3253    2.0716 O   0  0  0  0  0  0  0  0  0  0  0  0
   -1.4184    5.4113   -0.6916 O   0  0  0  0  0  0  0  0  0  0  0  0
   -3.2494   -3.0920   -0.0539 N   0  0  0  0  0  0  0  0  0  0  0  0
   -1.9826    0.2769    0.8912 N   0  0  0  0  0  0  0  0  0  0  0  0
    0.2017   -0.6095    0.8653 N   0  0  0  0  0  0  0  0  0  0  0  0
    7.8196   -0.8771   -0.4868 N   0  0  0  0  0  0  0  0  0  0  0  0
    7.8112    0.4232   -0.8264 N   0  0  0  0  0  0  0  0  0  0  0  0
   -2.8458   -2.0073    0.8385 C   0  0  0  0  0  0  0  0  0  0  0  0
   -2.0733   -3.7605   -0.6276 C   0  0  0  0  0  0  0  0  0  0  0  0
   -4.0868   -4.0682    0.6570 C   0  0  0  0  0  0  0  0  0  0  0  0
   -2.3935   -0.7992    0.0314 C   0  0  0  0  0  0  0  0  0  0  0  0
   -2.5195   -4.8952   -1.5452 C   0  0  0  0  0  0  0  0  0  0  0  0
   -4.4849   -5.1964   -0.2903 C   0  0  0  0  0  0  0  0  0  0  0  0
   -3.0225    1.2328    1.2907 C   0  0  0  0  0  0  0  0  0  0  0  0
   -0.6315    0.4093    1.3343 C   0  0  0  0  0  0  0  0  0  0  0  0
   -3.1644    2.3543    0.3026 C   0  0  0  0  0  0  0  0  0  0  0  0
   -2.2138    3.3743    0.2637 C   0  0  0  0  0  0  0  0  0  0  0  0
   -4.2475    2.3762   -0.5762 C   0  0  0  0  0  0  0  0  0  0  0  0
    1.5891   -0.5330    0.5873 C   0  0  0  0  0  0  0  0  0  0  0  0
   -2.3463    4.4163   -0.6542 C   0  0  0  0  0  0  0  0  0  0  0  0
   -4.3799    3.4182   -1.4939 C   0  0  0  0  0  0  0  0  0  0  0  0
   -3.4294    4.4383   -1.5328 C   0  0  0  0  0  0  0  0  0  0  0  0
    2.2742    0.6668    0.7799 C   0  0  0  0  0  0  0  0  0  0  0  0
    2.2695   -1.6575    0.1201 C   0  0  0  0  0  0  0  0  0  0  0  0
    4.3200   -0.3825    0.0379 C   0  0  0  0  0  0  0  0  0  0  0  0
    3.6395    0.7420    0.5051 C   0  0  0  0  0  0  0  0  0  0  0  0
    3.6349   -1.5821   -0.1547 C   0  0  0  0  0  0  0  0  0  0  0  0
    5.7256   -0.3050   -0.2455 C   0  0  0  0  0  0  0  0  0  0  0  0
    6.5954   -1.3618   -0.1309 C   0  0  0  0  0  0  0  0  0  0  0  0
    6.5293    0.7672   -0.6770 C   0  0  0  0  0  0  0  0  0  0  0  0
   -0.3370    5.3256    0.2353 C   0  0  0  0  0  0  0  0  0  0  0  0
   -3.7040   -1.6956    1.4488 H   0  0  0  0  0  0  0  0  0  0  0  0
   -2.0776   -2.3352    1.5504 H   0  0  0  0  0  0  0  0  0  0  0  0
   -1.4401   -4.1692    0.1709 H   0  0  0  0  0  0  0  0  0  0  0  0
   -1.4642   -3.0726   -1.2212 H   0  0  0  0  0  0  0  0  0  0  0  0
   -4.9970   -3.5886    1.0347 H   0  0  0  0  0  0  0  0  0  0  0  0
   -3.5401   -4.4845    1.5132 H   0  0  0  0  0  0  0  0  0  0  0  0
   -1.5945   -1.0319   -0.6774 H   0  0  0  0  0  0  0  0  0  0  0  0
   -3.2233   -0.4482   -0.5956 H   0  0  0  0  0  0  0  0  0  0  0  0
   -1.6449   -5.4325   -1.9260 H   0  0  0  0  0  0  0  0  0  0  0  0
   -3.0805   -4.5201   -2.4099 H   0  0  0  0  0  0  0  0  0  0  0  0
   -5.1134   -4.8321   -1.1121 H   0  0  0  0  0  0  0  0  0  0  0  0
   -5.0574   -5.9548    0.2532 H   0  0  0  0  0  0  0  0  0  0  0  0
   -2.7575    1.6548    2.2681 H   0  0  0  0  0  0  0  0  0  0  0  0
   -3.9691    0.6991    1.4355 H   0  0  0  0  0  0  0  0  0  0  0  0
   -0.2103   -1.5149    0.6652 H   0  0  0  0  0  0  0  0  0  0  0  0
   -1.3995    3.3223    0.9757 H   0  0  0  0  0  0  0  0  0  0  0  0
   -4.9951    1.5877   -0.5571 H   0  0  0  0  0  0  0  0  0  0  0  0
   -5.2230    3.4352   -2.1783 H   0  0  0  0  0  0  0  0  0  0  0  0
   -3.5379    5.2474   -2.2500 H   0  0  0  0  0  0  0  0  0  0  0  0
    1.7945    1.5777    1.1170 H   0  0  0  0  0  0  0  0  0  0  0  0
    1.7462   -2.5973   -0.0373 H   0  0  0  0  0  0  0  0  0  0  0  0
    4.1507    1.6885    0.6635 H   0  0  0  0  0  0  0  0  0  0  0  0
    4.1305   -2.4739   -0.5300 H   0  0  0  0  0  0  0  0  0  0  0  0
    6.4739   -2.3933    0.1701 H   0  0  0  0  0  0  0  0  0  0  0  0
    6.2417    1.7866   -0.8934 H   0  0  0  0  0  0  0  0  0  0  0  0
    0.3062    6.1947    0.0619 H   0  0  0  0  0  0  0  0  0  0  0  0
    0.2762    4.4352    0.0587 H   0  0  0  0  0  0  0  0  0  0  0  0
   -0.6880    5.3906    1.2708 H   0  0  0  0  0  0  0  0  0  0  0  0
    8.7001   -1.3757   -0.5188 H   0  0  0  0  0  0  0  0  0  0  0  0
  1 13  1  0  0  0  0
  1 14  1  0  0  0  0
  2 16  2  0  0  0  0
  3 21  1  0  0  0  0
  3 32  1  0  0  0  0
  4  9  1  0  0  0  0
  4 10  1  0  0  0  0
  4 11  1  0  0  0  0
  5 12  1  0  0  0  0
  5 15  1  0  0  0  0
  5 16  1  0  0  0  0
  6 16  1  0  0  0  0
  6 20  1  0  0  0  0
  6 47  1  0  0  0  0
  7  8  1  0  0  0  0
  7 30  1  0  0  0  0
  7 61  1  0  0  0  0
  8 31  2  0  0  0  0
  9 12  1  0  0  0  0
  9 33  1  0  0  0  0
  9 34  1  0  0  0  0
 10 13  1  0  0  0  0
 10 35  1  0  0  0  0
 10 36  1  0  0  0  0
 11 14  1  0  0  0  0
 11 37  1  0  0  0  0
 11 38  1  0  0  0  0
 12 39  1  0  0  0  0
 12 40  1  0  0  0  0
 13 41  1  0  0  0  0
 13 42  1  0  0  0  0
 14 43  1  0  0  0  0
 14 44  1  0  0  0  0
 15 17  1  0  0  0  0
 15 45  1  0  0  0  0
 15 46  1  0  0  0  0
 17 18  2  0  0  0  0
 17 19  1  0  0  0  0
 18 21  1  0  0  0  0
 18 48  1  0  0  0  0
 19 22  2  0  0  0  0
 19 49  1  0  0  0  0
 20 24  2  0  0  0  0
 20 25  1  0  0  0  0
 21 23  2  0  0  0  0
 22 23  1  0  0  0  0
 22 50  1  0  0  0  0
 23 51  1  0  0  0  0
 24 27  1  0  0  0  0
 24 52  1  0  0  0  0
 25 28  2  0  0  0  0
 25 53  1  0  0  0  0
 26 27  2  0  0  0  0
 26 28  1  0  0  0  0
 26 29  1  0  0  0  0
 27 54  1  0  0  0  0
 28 55  1  0  0  0  0
 29 30  2  0  0  0  0
 29 31  1  0  0  0  0
 30 56  1  0  0  0  0
 31 57  1  0  0  0  0
 32 58  1  0  0  0  0
 32 59  1  0  0  0  0
 32 60  1  0  0  0  0
M  END
> <PUBCHEM_COMPOUND_CID>
68561431

> <PUBCHEM_CONFORMER_RMSD>
1

> <PUBCHEM_CONFORMER_DIVERSEORDER>
1
137
170
193
161
144
104
228
97
136
20
194
77
130
203
129
135
69
231
248
55
68
187
185
166
139
49
56
115
189
184
223
52
13
103
154
254
80
37
156
82
162
172
244
220
27
211
195
149
134
168
100
114
94
22
23
227
57
124
160
243
91
235
159
191
67
128
71
30
98
45
241
222
182
213
113
158
201
11
96
10
60
236
142
101
19
12
75
175
251
233
216
242
148
81
35
117
165
147
4
109
171
188
110
64
192
120
208
197
119
237
247
253
99
183
74
106
24
102
58
155
8
225
42
219
48
63
90
89
229
36
250
18
39
177
221
178
73
179
252
212
93
143
78
83
240
122
92
174
16
198
205
76
88
61
234
238
151
214
65
28
46
232
111
239
215
116
224
38
226
15
176
79
14
210
246
140
180
84
86
200
29
9
230
249
132
146
209
245
181
152
105
6
118
206
199
145
7
62
95
21
5
59
108
153
25
169
127
157
131
17
196
217
26
204
112
186
167
218
125
41
87
207
123
53
3
133
2
54
202
43
190
44
40
66
138
107
163
126
121
70
51
33
164
72
31
141
47
85
32
34
150
173
50

> <PUBCHEM_MMFF94_PARTIAL_CHARGES>
44
1 -0.56
10 0.27
11 0.27
12 0.3
13 0.28
14 0.28
15 0.44
16 0.69
17 -0.14
18 -0.15
19 -0.15
2 -0.57
20 0.12
21 0.08
22 -0.15
23 -0.15
24 -0.15
25 -0.15
26 0.05
27 -0.15
28 -0.15
29 -0.05
3 -0.36
30 -0.3
31 0.14
32 0.28
4 -0.81
47 0.37
48 0.15
49 0.15
5 -0.66
50 0.15
51 0.15
52 0.15
53 0.15
54 0.15
55 0.15
56 0.15
57 0.15
6 -0.55
61 0.27
7 0.3
8 -0.71
9 0.27

> <PUBCHEM_EFFECTIVE_ROTOR_COUNT>
11.2

> <PUBCHEM_PHARMACOPHORE_FEATURES>
11
1 1 acceptor
1 2 acceptor
1 3 acceptor
1 4 cation
1 6 donor
1 7 donor
1 8 acceptor
5 7 8 29 30 31 rings
6 1 4 10 11 13 14 rings
6 17 18 19 21 22 23 rings
6 20 24 25 26 27 28 rings

> <PUBCHEM_HEAVY_ATOM_COUNT>
32

> <PUBCHEM_ATOM_DEF_STEREO_COUNT>
0

> <PUBCHEM_ATOM_UDEF_STEREO_COUNT>
0

> <PUBCHEM_BOND_DEF_STEREO_COUNT>
0

> <PUBCHEM_BOND_UDEF_STEREO_COUNT>
0

> <PUBCHEM_ISOTOPIC_ATOM_COUNT>
0

> <PUBCHEM_COMPONENT_COUNT>
1

> <PUBCHEM_CACTVS_TAUTO_COUNT>
2

> <PUBCHEM_CONFORMER_ID>
04162A1700000001

> <PUBCHEM_MMFF94_ENERGY>
87.6206

> <PUBCHEM_FEATURE_SELFOVERLAP>
55.823

> <PUBCHEM_SHAPE_FINGERPRINT>
10290309 65 18123760759318990747
10319688 140 17042324411583762439
11297750 10 18057034916428845379
11763715 3 18118136980696773910
11991303 11 18339638936683043734
12788726 201 18187635917252225635
13540713 4 17987501771155408560
13690498 29 18339082691395098002
13911987 19 18195521498682926897
14114206 34 18195225914169255151
14508225 48 18266735977712965339
14556957 393 17970080030866931326
14675019 173 18192717971965993347
15064981 113 17904463131136744580
15198563 99 18337948000090965287
15297060 5 18124874565046911857
15444296 7 17968109607356946181
15803439 3 18119788241593873621
15876981 60 18187936113516548212
15878777 1 16478016475607601715
16087824 20 18409451367976365803
16628084 112 18339633439985468767
16989713 51 18270686475826474766
19958102 18 18125446302534218308
20101258 96 18262808500555858161
20505436 4 17895756175717871259
20771845 165 18122072996159007006
20775438 99 17693608927686005125
24941158 1 16747880124033972063
25019877 29 18194130620879170493
255183 451 17908138034257973959
3103668 31 18337383933499001951
4046055 25 17981322610154383183
4394409 98 17329174385204381758
4409770 3 18411698777732652715
44249763 50 18411972556154303896
44802255 64 18337115544601664447
504843 32 18339643322182171911
531348 171 18335705984207609098
6700243 42 17840909357701806788
6898599 12 18408888404141159860

> <PUBCHEM_SHAPE_MULTIPOLES>
616.03
14.97
9.07
1.28
39.15
2.65
-0.05
3.12
4.85
-20.91
3.87
-0.94
-0.29
0.76

> <PUBCHEM_SHAPE_SELFOVERLAP>
1314.617

> <PUBCHEM_SHAPE_VOLUME>
342.6

> <PUBCHEM_COORDINATE_TYPE>
2
5
10

$$$$
68567893
  -OEChem-05102415093D

 64 67  0     0  0  0  0  0  0999 V2000
   -0.7468    5.6574   -1.2400 O   0  0  0  0  0  0  0  0  0  0  0  0
    0.9031   -1.5575    2.0867 O   0  0  0  0  0  0  0  0  0  0  0  0
    3.1432   -4.7144   -1.1825 O   0  0  0  0  0  0  0  0  0  0  0  0
    1.3399    4.0594   -0.1477 N   0  0  0  0  0  0  0  0  0  0  0  0
    2.2612    0.0865    1.1326 N   0  0  0  0  0  0  0  0  0  0  0  0
   -0.0836    0.3300    1.1502 N   0  0  0  0  0  0  0  0  0  0  0  0
   -7.2902   -1.3592   -1.1172 N   0  0  0  0  0  0  0  0  0  0  0  0
   -7.2796   -2.4630   -0.3506 N   0  0  0  0  0  0  0  0  0  0  0  0
    2.5287    3.8702    0.6810 C   0  0  0  0  0  0  0  0  0  0  0  0
    1.5982    5.0352   -1.2156 C   0  0  0  0  0  0  0  0  0  0  0  0
    0.1990    4.4966    0.6687 C   0  0  0  0  0  0  0  0  0  0  0  0
    2.4559    2.5285    1.4119 C   0  0  0  0  0  0  0  0  0  0  0  0
    2.3533    1.3481    0.4503 C   0  0  0  0  0  0  0  0  0  0  0  0
    0.3405    5.2255   -2.0588 C   0  0  0  0  0  0  0  0  0  0  0  0
   -1.0256    4.6985   -0.2192 C   0  0  0  0  0  0  0  0  0  0  0  0
    3.5275   -0.5934    1.4315 C   0  0  0  0  0  0  0  0  0  0  0  0
    1.0017   -0.4769    1.5012 C   0  0  0  0  0  0  0  0  0  0  0  0
    3.9726   -1.4747    0.3003 C   0  0  0  0  0  0  0  0  0  0  0  0
    3.3434   -2.7001    0.0813 C   0  0  0  0  0  0  0  0  0  0  0  0
    5.0161   -1.0679   -0.5312 C   0  0  0  0  0  0  0  0  0  0  0  0
   -1.3958   -0.0845    0.8121 C   0  0  0  0  0  0  0  0  0  0  0  0
    3.7576   -3.5187   -0.9693 C   0  0  0  0  0  0  0  0  0  0  0  0
    5.4303   -1.8866   -1.5817 C   0  0  0  0  0  0  0  0  0  0  0  0
    4.8011   -3.1121   -1.8007 C   0  0  0  0  0  0  0  0  0  0  0  0
   -1.7193   -1.4413    0.8065 C   0  0  0  0  0  0  0  0  0  0  0  0
   -2.3637    0.8647    0.4836 C   0  0  0  0  0  0  0  0  0  0  0  0
   -3.9787   -0.8998    0.1442 C   0  0  0  0  0  0  0  0  0  0  0  0
   -3.0107   -1.8489    0.4726 C   0  0  0  0  0  0  0  0  0  0  0  0
   -3.6551    0.4570    0.1496 C   0  0  0  0  0  0  0  0  0  0  0  0
   -5.3081   -1.3194   -0.2002 C   0  0  0  0  0  0  0  0  0  0  0  0
   -6.1331   -0.6391   -1.0625 C   0  0  0  0  0  0  0  0  0  0  0  0
   -6.0663   -2.4333    0.2071 C   0  0  0  0  0  0  0  0  0  0  0  0
    2.0836   -5.0671   -0.2942 C   0  0  0  0  0  0  0  0  0  0  0  0
    2.6672    4.6909    1.3959 H   0  0  0  0  0  0  0  0  0  0  0  0
    3.4294    3.8492    0.0531 H   0  0  0  0  0  0  0  0  0  0  0  0
    1.6297    2.5179    2.1312 H   0  0  0  0  0  0  0  0  0  0  0  0
    3.3655    2.4198    2.0167 H   0  0  0  0  0  0  0  0  0  0  0  0
    2.4077    4.6848   -1.8662 H   0  0  0  0  0  0  0  0  0  0  0  0
    1.8996    5.9986   -0.7840 H   0  0  0  0  0  0  0  0  0  0  0  0
    0.4340    5.4403    1.1783 H   0  0  0  0  0  0  0  0  0  0  0  0
   -0.0539    3.7545    1.4321 H   0  0  0  0  0  0  0  0  0  0  0  0
    3.2429    1.3323   -0.1917 H   0  0  0  0  0  0  0  0  0  0  0  0
    1.5166    1.4603   -0.2463 H   0  0  0  0  0  0  0  0  0  0  0  0
    0.0609    4.3029   -2.5821 H   0  0  0  0  0  0  0  0  0  0  0  0
    0.5130    5.9965   -2.8166 H   0  0  0  0  0  0  0  0  0  0  0  0
   -1.8619    5.0780    0.3763 H   0  0  0  0  0  0  0  0  0  0  0  0
   -1.3469    3.7614   -0.6871 H   0  0  0  0  0  0  0  0  0  0  0  0
    3.3939   -1.2104    2.3286 H   0  0  0  0  0  0  0  0  0  0  0  0
    4.2874    0.1549    1.6858 H   0  0  0  0  0  0  0  0  0  0  0  0
    0.0599    1.3327    1.0955 H   0  0  0  0  0  0  0  0  0  0  0  0
    2.5490   -2.9796    0.7622 H   0  0  0  0  0  0  0  0  0  0  0  0
    5.5148   -0.1155   -0.3723 H   0  0  0  0  0  0  0  0  0  0  0  0
    6.2426   -1.5699   -2.2293 H   0  0  0  0  0  0  0  0  0  0  0  0
    5.1282   -3.7455   -2.6207 H   0  0  0  0  0  0  0  0  0  0  0  0
   -1.0033   -2.2239    1.0263 H   0  0  0  0  0  0  0  0  0  0  0  0
   -2.1288    1.9241    0.4977 H   0  0  0  0  0  0  0  0  0  0  0  0
   -3.2347   -2.9129    0.4644 H   0  0  0  0  0  0  0  0  0  0  0  0
   -4.3882    1.2244   -0.0861 H   0  0  0  0  0  0  0  0  0  0  0  0
   -6.0163    0.2668   -1.6413 H   0  0  0  0  0  0  0  0  0  0  0  0
   -5.7937   -3.2273    0.8883 H   0  0  0  0  0  0  0  0  0  0  0  0
    1.7072   -6.0446   -0.6132 H   0  0  0  0  0  0  0  0  0  0  0  0
    1.2463   -4.3644   -0.3657 H   0  0  0  0  0  0  0  0  0  0  0  0
    2.4423   -5.1839    0.7341 H   0  0  0  0  0  0  0  0  0  0  0  0
   -8.1231   -1.1570   -1.6558 H   0  0  0  0  0  0  0  0  0  0  0  0
  1 14  1  0  0  0  0
  1 15  1  0  0  0  0
  2 17  2  0  0  0  0
  3 22  1  0  0  0  0
  3 33  1  0  0  0  0
  4  9  1  0  0  0  0
  4 10  1  0  0  0  0
  4 11  1  0  0  0  0
  5 13  1  0  0  0  0
  5 16  1  0  0  0  0
  5 17  1  0  0  0  0
  6 17  1  0  0  0  0
  6 21  1  0  0  0  0
  6 50  1  0  0  0  0
  7  8  1  0  0  0  0
  7 31  1  0  0  0  0
  7 64  1  0  0  0  0
  8 32  2  0  0  0  0
  9 12  1  0  0  0  0
  9 34  1  0  0  0  0
  9 35  1  0  0  0  0
 10 14  1  0  0  0  0
 10 38  1  0  0  0  0
 10 39  1  0  0  0  0
 11 15  1  0  0  0  0
 11 40  1  0  0  0  0
 11 41  1  0  0  0  0
 12 13  1  0  0  0  0
 12 36  1  0  0  0  0
 12 37  1  0  0  0  0
 13 42  1  0  0  0  0
 13 43  1  0  0  0  0
 14 44  1  0  0  0  0
 14 45  1  0  0  0  0
 15 46  1  0  0  0  0
 15 47  1  0  0  0  0
 16 18  1  0  0  0  0
 16 48  1  0  0  0  0
 16 49  1  0  0  0  0
 18 19  2  0  0  0  0
 18 20  1  0  0  0  0
 19 22  1  0  0  0  0
 19 51  1  0  0  0  0
 20 23  2  0  0  0  0
 20 52  1  0  0  0  0
 21 25  2  0  0  0  0
 21 26  1  0  0  0  0
 22 24  2  0  0  0  0
 23 24  1  0  0  0  0
 23 53  1  0  0  0  0
 24 54  1  0  0  0  0
 25 28  1  0  0  0  0
 25 55  1  0  0  0  0
 26 29  2  0  0  0  0
 26 56  1  0  0  0  0
 27 28  2  0  0  0  0
 27 29  1  0  0  0  0
 27 30  1  0  0  0  0
 28 57  1  0  0  0  0
 29 58  1  0  0  0  0
 30 31  2  0  0  0  0
 30 32  1  0  0  0  0
 31 59  1  0  0  0  0
 32 60  1  0  0  0  0
 33 61  1  0  0  0  0
 33 62  1  0  0  0  0
 33 63  1  0  0  0  0
M  END
> <PUBCHEM_COMPOUND_CID>
68567893

> <PUBCHEM_CONFORMER_RMSD>
1.2

> <PUBCHEM_CONFORMER_DIVERSEORDER>
1
111
176
75
169
62
14
181
49
39
182
99
177
104
68
34
41
116
134
96
158
173
65
13
163
145
161
117
84
185
102
187
135
77
165
162
153
107
93
67
174
48
83
190
23
171
149
172
95
180
156
69
106
151
94
148
20
19
179
18
11
121
118
166
60
122
80
101
105
43
37
142
61
53
170
119
136
115
54
184
30
17
31
35
112
27
154
50
58
97
9
144
57
128
51
21
155
120
81
86
70
113
32
40
152
38
103
143
129
12
164
79
89
130
28
133
108
138
90
59
109
126
74
139
132
22
25
55
64
125
10
98
82
110
42
52
36
140
186
131
78
85
160
45
100
8
73
188
26
91
63
76
114
44
157
72
127
71
29
167
15
159
183
137
16
189
47
150
6
146
178
87
4
33
147
2
141
66
24
7
124
88
46
3
123
5
92
168
56
175

> <PUBCHEM_MMFF94_PARTIAL_CHARGES>
44
1 -0.56
10 0.27
11 0.27
13 0.3
14 0.28
15 0.28
16 0.44
17 0.69
18 -0.14
19 -0.15
2 -0.57
20 -0.15
21 0.12
22 0.08
23 -0.15
24 -0.15
25 -0.15
26 -0.15
27 0.05
28 -0.15
29 -0.15
3 -0.36
30 -0.05
31 -0.3
32 0.14
33 0.28
4 -0.81
5 -0.66
50 0.37
51 0.15
52 0.15
53 0.15
54 0.15
55 0.15
56 0.15
57 0.15
58 0.15
59 0.15
6 -0.55
60 0.15
64 0.27
7 0.3
8 -0.71
9 0.27

> <PUBCHEM_EFFECTIVE_ROTOR_COUNT>
12.2

> <PUBCHEM_PHARMACOPHORE_FEATURES>
11
1 1 acceptor
1 2 acceptor
1 3 acceptor
1 4 cation
1 6 donor
1 7 donor
1 8 acceptor
5 7 8 30 31 32 rings
6 1 4 10 11 14 15 rings
6 18 19 20 22 23 24 rings
6 21 25 26 27 28 29 rings

> <PUBCHEM_HEAVY_ATOM_COUNT>
33

> <PUBCHEM_ATOM_DEF_STEREO_COUNT>
0

> <PUBCHEM_ATOM_UDEF_STEREO_COUNT>
0

> <PUBCHEM_BOND_DEF_STEREO_COUNT>
0

> <PUBCHEM_BOND_UDEF_STEREO_COUNT>
0

> <PUBCHEM_ISOTOPIC_ATOM_COUNT>
0

> <PUBCHEM_COMPONENT_COUNT>
1

> <PUBCHEM_CACTVS_TAUTO_COUNT>
2

> <PUBCHEM_CONFORMER_ID>
0416435500000001

> <PUBCHEM_MMFF94_ENERGY>
87.2989

> <PUBCHEM_FEATURE_SELFOVERLAP>
55.823

> <PUBCHEM_SHAPE_FINGERPRINT>
10556698 54 17247464372486614269
11093857 51 17977947109251947600
11297010 23 17975683206974225501
11386260 185 18264191652372780661
11991303 11 17689164404927367969
1361 2 18341611581081900346
13617811 41 18410008827986435535
14251757 5 17833277419823664048
15420108 30 17475210875697910704
15484559 13 18193557998542911716
16988056 13 18335983180959192260
16991981 162 17760370989475525629
21857420 4 18261110790173301068
23559900 14 18340200924922253227
24771750 20 17755874356464691477
255183 451 18341898510666687333
3388396 114 17974044788783442828
3534868 343 18270405026730369825
4017518 198 17838063955397699300
4046055 25 18342179917103470385
4066623 53 18334292063973283572
4144715 1 18262236737994170321
4173938 77 18340203106887277399
46194498 28 18409725200935236182
6609424 69 17169805981590230837
70251023 43 18412827975667567833
9831232 110 18413102875651553127

> <PUBCHEM_SHAPE_MULTIPOLES>
636.61
13.63
8.84
1.62
22.65
12.2
0.17
-19.24
5.49
-6.45
4.55
-1.26
0.44
1.85

> <PUBCHEM_SHAPE_SELFOVERLAP>
1352.965

> <PUBCHEM_SHAPE_VOLUME>
355.5

> <PUBCHEM_COORDINATE_TYPE>
2
5
10

$$$$
68565200
  -OEChem-05102415093D

 63 66  0     0  0  0  0  0  0999 V2000
    0.2533   -1.3323    2.0727 O   0  0  0  0  0  0  0  0  0  0  0  0
    1.4056   -5.4103   -0.7045 O   0  0  0  0  0  0  0  0  0  0  0  0
    3.2535    3.0877   -0.0337 N   0  0  0  0  0  0  0  0  0  0  0  0
    1.9783   -0.2829    0.8982 N   0  0  0  0  0  0  0  0  0  0  0  0
   -0.2041    0.6080    0.8730 N   0  0  0  0  0  0  0  0  0  0  0  0
   -7.8199    0.8963   -0.4866 N   0  0  0  0  0  0  0  0  0  0  0  0
   -7.8137   -0.4028   -0.8310 N   0  0  0  0  0  0  0  0  0  0  0  0
    4.0914    4.0552    0.6887 C   0  0  0  0  0  0  0  0  0  0  0  0
    2.0747    3.7401   -0.6210 C   0  0  0  0  0  0  0  0  0  0  0  0
    4.5668    5.1745   -0.2391 C   0  0  0  0  0  0  0  0  0  0  0  0
    2.4841    4.8492   -1.5912 C   0  0  0  0  0  0  0  0  0  0  0  0
    3.3914    5.8709   -0.9152 C   0  0  0  0  0  0  0  0  0  0  0  0
    2.8463    1.9997    0.8550 C   0  0  0  0  0  0  0  0  0  0  0  0
    2.3925    0.7956    0.0428 C   0  0  0  0  0  0  0  0  0  0  0  0
    3.0159   -1.2425    1.2952 C   0  0  0  0  0  0  0  0  0  0  0  0
    0.6265   -0.4142    1.3391 C   0  0  0  0  0  0  0  0  0  0  0  0
    3.1567   -2.3605    0.3031 C   0  0  0  0  0  0  0  0  0  0  0  0
    2.2041   -3.3785    0.2592 C   0  0  0  0  0  0  0  0  0  0  0  0
    4.2407   -2.3813   -0.5745 C   0  0  0  0  0  0  0  0  0  0  0  0
   -1.5913    0.5353    0.5933 C   0  0  0  0  0  0  0  0  0  0  0  0
    2.3355   -4.4172   -0.6622 C   0  0  0  0  0  0  0  0  0  0  0  0
    4.3720   -3.4201   -1.4959 C   0  0  0  0  0  0  0  0  0  0  0  0
    3.4195   -4.4382   -1.5398 C   0  0  0  0  0  0  0  0  0  0  0  0
   -2.2790   -0.6638    0.7805 C   0  0  0  0  0  0  0  0  0  0  0  0
   -2.2689    1.6629    0.1294 C   0  0  0  0  0  0  0  0  0  0  0  0
   -4.3218    0.3925    0.0402 C   0  0  0  0  0  0  0  0  0  0  0  0
   -3.6442   -0.7351    0.5039 C   0  0  0  0  0  0  0  0  0  0  0  0
   -3.6341    1.5915   -0.1472 C   0  0  0  0  0  0  0  0  0  0  0  0
   -5.7273    0.3189   -0.2451 C   0  0  0  0  0  0  0  0  0  0  0  0
   -6.5951    1.3771   -0.1275 C   0  0  0  0  0  0  0  0  0  0  0  0
    0.3232   -5.3258    0.2216 C   0  0  0  0  0  0  0  0  0  0  0  0
   -6.5327   -0.7500   -0.6814 C   0  0  0  0  0  0  0  0  0  0  0  0
    4.9791    3.5531    1.0924 H   0  0  0  0  0  0  0  0  0  0  0  0
    3.5452    4.4864    1.5381 H   0  0  0  0  0  0  0  0  0  0  0  0
    1.4310    4.1613    0.1629 H   0  0  0  0  0  0  0  0  0  0  0  0
    1.4655    3.0320   -1.1906 H   0  0  0  0  0  0  0  0  0  0  0  0
    5.1508    5.9055    0.3316 H   0  0  0  0  0  0  0  0  0  0  0  0
    5.2346    4.7587   -1.0043 H   0  0  0  0  0  0  0  0  0  0  0  0
    3.0046    4.4108   -2.4523 H   0  0  0  0  0  0  0  0  0  0  0  0
    1.5901    5.3503   -1.9795 H   0  0  0  0  0  0  0  0  0  0  0  0
    2.8178    6.4311   -0.1666 H   0  0  0  0  0  0  0  0  0  0  0  0
    3.7559    6.5959   -1.6511 H   0  0  0  0  0  0  0  0  0  0  0  0
    3.7019    1.6829    1.4663 H   0  0  0  0  0  0  0  0  0  0  0  0
    2.0772    2.3278    1.5658 H   0  0  0  0  0  0  0  0  0  0  0  0
    1.5945    1.0269   -0.6669 H   0  0  0  0  0  0  0  0  0  0  0  0
    3.2231    0.4453   -0.5836 H   0  0  0  0  0  0  0  0  0  0  0  0
    2.7490   -1.6676    2.2707 H   0  0  0  0  0  0  0  0  0  0  0  0
    3.9635   -0.7112    1.4432 H   0  0  0  0  0  0  0  0  0  0  0  0
    0.2101    1.5132    0.6765 H   0  0  0  0  0  0  0  0  0  0  0  0
    1.3890   -3.3274    0.9705 H   0  0  0  0  0  0  0  0  0  0  0  0
    4.9899   -1.5945   -0.5516 H   0  0  0  0  0  0  0  0  0  0  0  0
    5.2159   -3.4364   -2.1794 H   0  0  0  0  0  0  0  0  0  0  0  0
    3.5272   -5.2448   -2.2598 H   0  0  0  0  0  0  0  0  0  0  0  0
   -1.8015   -1.5768    1.1147 H   0  0  0  0  0  0  0  0  0  0  0  0
   -1.7435    2.6022   -0.0239 H   0  0  0  0  0  0  0  0  0  0  0  0
   -4.1575   -1.6812    0.6582 H   0  0  0  0  0  0  0  0  0  0  0  0
   -4.1275    2.4856   -0.5198 H   0  0  0  0  0  0  0  0  0  0  0  0
   -6.4719    2.4073    0.1774 H   0  0  0  0  0  0  0  0  0  0  0  0
    0.6730   -5.3953    1.2572 H   0  0  0  0  0  0  0  0  0  0  0  0
   -0.2879   -4.4334    0.0476 H   0  0  0  0  0  0  0  0  0  0  0  0
   -0.3215   -6.1929    0.0442 H   0  0  0  0  0  0  0  0  0  0  0  0
   -6.2470   -1.7692   -0.9013 H   0  0  0  0  0  0  0  0  0  0  0  0
   -8.6994    1.3967   -0.5178 H   0  0  0  0  0  0  0  0  0  0  0  0
  1 16  2  0  0  0  0
  2 21  1  0  0  0  0
  2 31  1  0  0  0  0
  3  8  1  0  0  0  0
  3  9  1  0  0  0  0
  3 13  1  0  0  0  0
  4 14  1  0  0  0  0
  4 15  1  0  0  0  0
  4 16  1  0  0  0  0
  5 16  1  0  0  0  0
  5 20  1  0  0  0  0
  5 49  1  0  0  0  0
  6  7  1  0  0  0  0
  6 30  1  0  0  0  0
  6 63  1  0  0  0  0
  7 32  2  0  0  0  0
  8 10  1  0  0  0  0
  8 33  1  0  0  0  0
  8 34  1  0  0  0  0
  9 11  1  0  0  0  0
  9 35  1  0  0  0  0
  9 36  1  0  0  0  0
 10 12  1  0  0  0  0
 10 37  1  0  0  0  0
 10 38  1  0  0  0  0
 11 12  1  0  0  0  0
 11 39  1  0  0  0  0
 11 40  1  0  0  0  0
 12 41  1  0  0  0  0
 12 42  1  0  0  0  0
 13 14  1  0  0  0  0
 13 43  1  0  0  0  0
 13 44  1  0  0  0  0
 14 45  1  0  0  0  0
 14 46  1  0  0  0  0
 15 17  1  0  0  0  0
 15 47  1  0  0  0  0
 15 48  1  0  0  0  0
 17 18  2  0  0  0  0
 17 19  1  0  0  0  0
 18 21  1  0  0  0  0
 18 50  1  0  0  0  0
 19 22  2  0  0  0  0
 19 51  1  0  0  0  0
 20 24  2  0  0  0  0
 20 25  1  0  0  0  0
 21 23  2  0  0  0  0
 22 23  1  0  0  0  0
 22 52  1  0  0  0  0
 23 53  1  0  0  0  0
 24 27  1  0  0  0  0
 24 54  1  0  0  0  0
 25 28  2  0  0  0  0
 25 55  1  0  0  0  0
 26 27  2  0  0  0  0
 26 28  1  0  0  0  0
 26 29  1  0  0  0  0
 27 56  1  0  0  0  0
 28 57  1  0  0  0  0
 29 30  2  0  0  0  0
 29 32  1  0  0  0  0
 30 58  1  0  0  0  0
 31 59  1  0  0  0  0
 31 60  1  0  0  0  0
 31 61  1  0  0  0  0
 32 62  1  0  0  0  0
M  END
> <PUBCHEM_COMPOUND_CID>
68565200

> <PUBCHEM_CONFORMER_RMSD>
1

> <PUBCHEM_CONFORMER_DIVERSEORDER>
1
170
255
57
203
99
224
142
149
123
145
144
146
85
94
118
107
69
24
249
200
211
35
226
49
73
155
172
128
180
238
51
181
206
141
91
178
162
75
134
65
52
231
194
250
70
106
148
58
262
225
80
46
191
23
241
228
42
77
109
22
159
173
25
252
264
239
114
201
133
175
257
212
37
185
44
63
182
50
67
217
166
59
253
137
33
95
125
45
213
19
20
208
6
260
126
183
265
115
233
202
167
97
28
86
184
263
38
188
251
56
79
14
192
139
48
230
237
124
186
10
119
15
62
216
88
174
61
248
121
12
247
72
204
187
168
234
229
31
227
269
266
179
207
132
112
156
198
165
32
197
258
152
254
161
236
151
268
117
205
138
120
7
71
27
16
89
103
11
154
209
232
177
267
245
169
256
53
195
140
157
78
17
136
113
261
90
127
163
8
108
147
84
210
243
150
221
199
171
66
242
55
34
76
122
9
82
246
240
220
160
102
189
68
153
164
87
41
214
215
111
223
54
235
13
98
176
259
5
64
143
92
131
222
18
116
83
218
74
190
196
43
193
39
130
60
135
101
105
36
3
244
100
30
26
2
81
110
158
129
104
96
4
21
93
219
29
47
40

> <PUBCHEM_MMFF94_PARTIAL_CHARGES>
41
1 -0.57
13 0.27
14 0.3
15 0.44
16 0.69
17 -0.14
18 -0.15
19 -0.15
2 -0.36
20 0.12
21 0.08
22 -0.15
23 -0.15
24 -0.15
25 -0.15
26 0.05
27 -0.15
28 -0.15
29 -0.05
3 -0.81
30 -0.3
31 0.28
32 0.14
4 -0.66
49 0.37
5 -0.55
50 0.15
51 0.15
52 0.15
53 0.15
54 0.15
55 0.15
56 0.15
57 0.15
58 0.15
6 0.3
62 0.15
63 0.27
7 -0.71
8 0.27
9 0.27

> <PUBCHEM_EFFECTIVE_ROTOR_COUNT>
11.2

> <PUBCHEM_PHARMACOPHORE_FEATURES>
10
1 1 acceptor
1 2 acceptor
1 3 cation
1 5 donor
1 6 donor
1 7 acceptor
5 6 7 29 30 32 rings
6 17 18 19 21 22 23 rings
6 20 24 25 26 27 28 rings
6 3 8 9 10 11 12 rings

> <PUBCHEM_HEAVY_ATOM_COUNT>
32

> <PUBCHEM_ATOM_DEF_STEREO_COUNT>
0

> <PUBCHEM_ATOM_UDEF_STEREO_COUNT>
0

> <PUBCHEM_BOND_DEF_STEREO_COUNT>
0

> <PUBCHEM_BOND_UDEF_STEREO_COUNT>
0

> <PUBCHEM_ISOTOPIC_ATOM_COUNT>
0

> <PUBCHEM_COMPONENT_COUNT>
1

> <PUBCHEM_CACTVS_TAUTO_COUNT>
2

> <PUBCHEM_CONFORMER_ID>
041638D000000001

> <PUBCHEM_MMFF94_ENERGY>
78.9846

> <PUBCHEM_FEATURE_SELFOVERLAP>
50.747

> <PUBCHEM_SHAPE_FINGERPRINT>
10290309 65 18121799475572459177
10554248 39 18270384028930555429
10673678 19 18266458887507954785
11377469 6 17844249514686035323
11386260 185 18337379436737107437
12522641 68 17907583880381783500
12788726 201 17396151140631299362
13008946 62 17612054946044946941
13540713 4 17969237783501159667
1361 2 18411700950421764490
13773456 30 18338515369106596402
14117953 113 18339371834064870940
14294032 229 17617666891810086896
15264996 151 17905612103941093607
15420108 30 18048021167808244672
15439362 3 18339360898482029324
15484559 13 18411990157062197542
15664445 248 18335979762091209506
15840311 113 18334579011261107901
16988056 13 18336548214214299852
17899979 129 18337399325986758628
19311894 1 17617658756989254905
19427546 62 18337668745184753362
21033648 29 9149727306768512738
21304303 282 17623280985591624996
21365058 113 18196381324853293782
21716022 299 17632302237895034216
23522609 53 17845392041509040497
23559900 14 18409166589246872243
24771750 20 18262249922515413468
255183 451 18199472069303269740
3534868 343 18343303652368564169
376196 1 18043528537084107056
38695281 34 18192993944224174408
4017518 198 18195538215154585852
4353968 344 17691987964559551998
46194498 28 18336541638355229063
53794403 172 18410011056989845287
6004065 56 18411700946685804018
6695519 79 17839196443029117619
9831232 110 18340200770889246143

> <PUBCHEM_SHAPE_MULTIPOLES>
621.9
14.96
9.31
1.3
39.21
1.16
-0.04
5.8
4.77
-21.33
4.11
-0.96
-0.3
0.76

> <PUBCHEM_SHAPE_SELFOVERLAP>
1324.307

> <PUBCHEM_SHAPE_VOLUME>
347.1

> <PUBCHEM_COORDINATE_TYPE>
2
5
10

$$$$
70896923
  -OEChem-05102415093D

 66 69  0     0  0  0  0  0  0999 V2000
    0.8203    1.4250    2.2718 O   0  0  0  0  0  0  0  0  0  0  0  0
   -4.8107    3.3075   -1.6729 O   0  0  0  0  0  0  0  0  0  0  0  0
   -3.5844   -2.8210   -0.0797 N   0  0  0  0  0  0  0  0  0  0  0  0
   -1.0138    0.3171    1.3410 N   0  0  0  0  0  0  0  0  0  0  0  0
    1.1591   -0.5714    1.1259 N   0  0  0  0  0  0  0  0  0  0  0  0
    8.5877   -0.9176   -1.0257 N   0  0  0  0  0  0  0  0  0  0  0  0
    8.5365    0.3630   -1.4301 N   0  0  0  0  0  0  0  0  0  0  0  0
   -4.7581   -2.8180    0.8049 C   0  0  0  0  0  0  0  0  0  0  0  0
   -3.7785   -3.7315   -1.2169 C   0  0  0  0  0  0  0  0  0  0  0  0
   -6.0176   -2.3908    0.0494 C   0  0  0  0  0  0  0  0  0  0  0  0
   -5.0060   -3.3343   -2.0383 C   0  0  0  0  0  0  0  0  0  0  0  0
   -6.2580   -3.2724   -1.1706 C   0  0  0  0  0  0  0  0  0  0  0  0
   -2.3812   -3.1855    0.6678 C   0  0  0  0  0  0  0  0  0  0  0  0
   -1.8775   -1.9884    1.4757 C   0  0  0  0  0  0  0  0  0  0  0  0
   -1.5099   -0.8024    0.5885 C   0  0  0  0  0  0  0  0  0  0  0  0
   -2.0092    1.2938    1.7998 C   0  0  0  0  0  0  0  0  0  0  0  0
    0.3766    0.4716    1.6280 C   0  0  0  0  0  0  0  0  0  0  0  0
   -2.2622    2.3617    0.7752 C   0  0  0  0  0  0  0  0  0  0  0  0
   -3.4334    2.3386    0.0179 C   0  0  0  0  0  0  0  0  0  0  0  0
   -1.3255    3.3767    0.5804 C   0  0  0  0  0  0  0  0  0  0  0  0
    2.5080   -0.5110    0.6961 C   0  0  0  0  0  0  0  0  0  0  0  0
   -3.6679    3.3306   -0.9342 C   0  0  0  0  0  0  0  0  0  0  0  0
   -1.5600    4.3686   -0.3717 C   0  0  0  0  0  0  0  0  0  0  0  0
   -2.7311    4.3455   -1.1292 C   0  0  0  0  0  0  0  0  0  0  0  0
    3.2042    0.6966    0.7501 C   0  0  0  0  0  0  0  0  0  0  0  0
    3.1393   -1.6592    0.2177 C   0  0  0  0  0  0  0  0  0  0  0  0
    5.1629   -0.3925   -0.1525 C   0  0  0  0  0  0  0  0  0  0  0  0
    4.5315    0.7558    0.3257 C   0  0  0  0  0  0  0  0  0  0  0  0
    4.4666   -1.5999   -0.2067 C   0  0  0  0  0  0  0  0  0  0  0  0
    6.5292   -0.3314   -0.5899 C   0  0  0  0  0  0  0  0  0  0  0  0
   -5.7247    2.2409   -1.4213 C   0  0  0  0  0  0  0  0  0  0  0  0
    7.4114   -1.3815   -0.5145 C   0  0  0  0  0  0  0  0  0  0  0  0
    7.2766    0.7157   -1.1614 C   0  0  0  0  0  0  0  0  0  0  0  0
   -4.9181   -3.8108    1.2461 H   0  0  0  0  0  0  0  0  0  0  0  0
   -4.6251   -2.1137    1.6325 H   0  0  0  0  0  0  0  0  0  0  0  0
   -2.9046   -3.6941   -1.8787 H   0  0  0  0  0  0  0  0  0  0  0  0
   -3.8839   -4.7687   -0.8722 H   0  0  0  0  0  0  0  0  0  0  0  0
   -5.9178   -1.3450   -0.2687 H   0  0  0  0  0  0  0  0  0  0  0  0
   -6.8851   -2.4402    0.7172 H   0  0  0  0  0  0  0  0  0  0  0  0
   -5.1554   -4.0529   -2.8521 H   0  0  0  0  0  0  0  0  0  0  0  0
   -4.8353   -2.3549   -2.5034 H   0  0  0  0  0  0  0  0  0  0  0  0
   -6.5274   -4.2843   -0.8439 H   0  0  0  0  0  0  0  0  0  0  0  0
   -7.1012   -2.8863   -1.7537 H   0  0  0  0  0  0  0  0  0  0  0  0
   -1.5757   -3.4758   -0.0198 H   0  0  0  0  0  0  0  0  0  0  0  0
   -2.5541   -4.0470    1.3251 H   0  0  0  0  0  0  0  0  0  0  0  0
   -0.9970   -2.3105    2.0452 H   0  0  0  0  0  0  0  0  0  0  0  0
   -2.6080   -1.6828    2.2329 H   0  0  0  0  0  0  0  0  0  0  0  0
   -2.3914   -0.4657    0.0305 H   0  0  0  0  0  0  0  0  0  0  0  0
   -0.7946   -1.1035   -0.1846 H   0  0  0  0  0  0  0  0  0  0  0  0
   -1.6409    1.7678    2.7181 H   0  0  0  0  0  0  0  0  0  0  0  0
   -2.9301    0.7671    2.0767 H   0  0  0  0  0  0  0  0  0  0  0  0
    0.7329   -1.4856    1.0186 H   0  0  0  0  0  0  0  0  0  0  0  0
   -4.1270    1.5266    0.2093 H   0  0  0  0  0  0  0  0  0  0  0  0
   -0.4133    3.4198    1.1670 H   0  0  0  0  0  0  0  0  0  0  0  0
   -0.8320    5.1605   -0.5218 H   0  0  0  0  0  0  0  0  0  0  0  0
   -2.9083    5.1212   -1.8692 H   0  0  0  0  0  0  0  0  0  0  0  0
    2.7596    1.6243    1.0891 H   0  0  0  0  0  0  0  0  0  0  0  0
    2.6068   -2.6056    0.1674 H   0  0  0  0  0  0  0  0  0  0  0  0
    5.0524    1.7088    0.3781 H   0  0  0  0  0  0  0  0  0  0  0  0
    4.9231   -2.5107   -0.5859 H   0  0  0  0  0  0  0  0  0  0  0  0
    7.3280   -2.3956   -0.1484 H   0  0  0  0  0  0  0  0  0  0  0  0
   -6.5756    2.3788   -2.0966 H   0  0  0  0  0  0  0  0  0  0  0  0
   -6.1185    2.2801   -0.4000 H   0  0  0  0  0  0  0  0  0  0  0  0
   -5.2833    1.2670   -1.6596 H   0  0  0  0  0  0  0  0  0  0  0  0
    6.9626    1.7226   -1.3987 H   0  0  0  0  0  0  0  0  0  0  0  0
    9.4619   -1.4180   -1.1264 H   0  0  0  0  0  0  0  0  0  0  0  0
  1 17  2  0  0  0  0
  2 22  1  0  0  0  0
  2 31  1  0  0  0  0
  3  8  1  0  0  0  0
  3  9  1  0  0  0  0
  3 13  1  0  0  0  0
  4 15  1  0  0  0  0
  4 16  1  0  0  0  0
  4 17  1  0  0  0  0
  5 17  1  0  0  0  0
  5 21  1  0  0  0  0
  5 52  1  0  0  0  0
  6  7  1  0  0  0  0
  6 32  1  0  0  0  0
  6 66  1  0  0  0  0
  7 33  2  0  0  0  0
  8 10  1  0  0  0  0
  8 34  1  0  0  0  0
  8 35  1  0  0  0  0
  9 11  1  0  0  0  0
  9 36  1  0  0  0  0
  9 37  1  0  0  0  0
 10 12  1  0  0  0  0
 10 38  1  0  0  0  0
 10 39  1  0  0  0  0
 11 12  1  0  0  0  0
 11 40  1  0  0  0  0
 11 41  1  0  0  0  0
 12 42  1  0  0  0  0
 12 43  1  0  0  0  0
 13 14  1  0  0  0  0
 13 44  1  0  0  0  0
 13 45  1  0  0  0  0
 14 15  1  0  0  0  0
 14 46  1  0  0  0  0
 14 47  1  0  0  0  0
 15 48  1  0  0  0  0
 15 49  1  0  0  0  0
 16 18  1  0  0  0  0
 16 50  1  0  0  0  0
 16 51  1  0  0  0  0
 18 19  2  0  0  0  0
 18 20  1  0  0  0  0
 19 22  1  0  0  0  0
 19 53  1  0  0  0  0
 20 23  2  0  0  0  0
 20 54  1  0  0  0  0
 21 25  2  0  0  0  0
 21 26  1  0  0  0  0
 22 24  2  0  0  0  0
 23 24  1  0  0  0  0
 23 55  1  0  0  0  0
 24 56  1  0  0  0  0
 25 28  1  0  0  0  0
 25 57  1  0  0  0  0
 26 29  2  0  0  0  0
 26 58  1  0  0  0  0
 27 28  2  0  0  0  0
 27 29  1  0  0  0  0
 27 30  1  0  0  0  0
 28 59  1  0  0  0  0
 29 60  1  0  0  0  0
 30 32  2  0  0  0  0
 30 33  1  0  0  0  0
 31 62  1  0  0  0  0
 31 63  1  0  0  0  0
 31 64  1  0  0  0  0
 32 61  1  0  0  0  0
 33 65  1  0  0  0  0
M  END
> <PUBCHEM_COMPOUND_CID>
70896923

> <PUBCHEM_CONFORMER_RMSD>
1.2

> <PUBCHEM_CONFORMER_DIVERSEORDER>
1
68
129
50
125
108
90
132
171
74
60
43
86
142
79
164
66
162
47
161
143
82
156
140
98
184
93
174
58
180
122
178
37
163
54
41
11
95
63
147
134
123
12
71
157
153
49
53
113
64
59
87
56
92
42
131
137
70
34
165
181
46
144
102
17
183
136
145
173
160
135
75
169
139
39
44
149
120
170
19
85
21
81
109
48
167
80
166
130
138
29
45
105
177
52
36
73
100
97
114
159
175
28
72
117
155
146
96
61
101
127
185
106
25
168
30
24
23
91
104
67
126
51
152
26
84
65
107
128
148
3
20
16
112
89
121
151
31
88
118
76
35
99
103
55
150
78
133
40
141
182
124
18
179
115
32
83
27
94
8
116
119
6
14
69
4
77
154
158
5
22
62
15
57
110
33
172
10
7
111
2
176
9
38
13

> <PUBCHEM_MMFF94_PARTIAL_CHARGES>
41
1 -0.57
13 0.27
15 0.3
16 0.44
17 0.69
18 -0.14
19 -0.15
2 -0.36
20 -0.15
21 0.12
22 0.08
23 -0.15
24 -0.15
25 -0.15
26 -0.15
27 0.05
28 -0.15
29 -0.15
3 -0.81
30 -0.05
31 0.28
32 -0.3
33 0.14
4 -0.66
5 -0.55
52 0.37
53 0.15
54 0.15
55 0.15
56 0.15
57 0.15
58 0.15
59 0.15
6 0.3
60 0.15
61 0.15
65 0.15
66 0.27
7 -0.71
8 0.27
9 0.27

> <PUBCHEM_EFFECTIVE_ROTOR_COUNT>
12.2

> <PUBCHEM_PHARMACOPHORE_FEATURES>
10
1 1 acceptor
1 2 acceptor
1 3 cation
1 5 donor
1 6 donor
1 7 acceptor
5 6 7 30 32 33 rings
6 18 19 20 22 23 24 rings
6 21 25 26 27 28 29 rings
6 3 8 9 10 11 12 rings

> <PUBCHEM_HEAVY_ATOM_COUNT>
33

> <PUBCHEM_ATOM_DEF_STEREO_COUNT>
0

> <PUBCHEM_ATOM_UDEF_STEREO_COUNT>
0

> <PUBCHEM_BOND_DEF_STEREO_COUNT>
0

> <PUBCHEM_BOND_UDEF_STEREO_COUNT>
0

> <PUBCHEM_ISOTOPIC_ATOM_COUNT>
0

> <PUBCHEM_COMPONENT_COUNT>
1

> <PUBCHEM_CACTVS_TAUTO_COUNT>
2

> <PUBCHEM_CONFORMER_ID>
0439CD1B00000001

> <PUBCHEM_MMFF94_ENERGY>
78.8117

> <PUBCHEM_FEATURE_SELFOVERLAP>
50.747

> <PUBCHEM_SHAPE_FINGERPRINT>
10049733 16 18334565829520374933
10190206 1 18335412444841525199
10454371 7 18335423448067949820
11227688 84 16557919905448561862
11297750 10 18201432640048281264
11477941 20 18186524319053988301
12788726 201 18260256473891236435
13540713 4 17988345066625381152
13631057 29 18201445787681814538
13673619 4 17845941835117530970
13690498 29 18342176687124630898
13757389 114 18338798906253944205
13911987 19 18192426369029299505
14294032 229 18337398128165565801
14508225 48 18338799047575486329
14556957 393 18115322183864265204
14930077 153 18186809101381987037
15198563 99 18335977640983981469
15276724 80 18410013234696455027
15444296 7 18041012708704198493
15444296 9 18059868272179264687
15876981 60 18260558835151352980
20775438 99 17838292524275895165
21365058 113 18045497775995903711
23191077 185 17751350695261346168
23576562 1 18335430080320654276
255183 451 17907854360495501543
4046055 25 18125435556420672079
4353968 344 18410858751197393102
437795 70 18268408275175537119
563151 97 18113902633076183026
5969126 39 18412265068468873862

> <PUBCHEM_SHAPE_MULTIPOLES>
642.48
20.18
5.99
1.73
42.43
3.07
0.08
-10.67
-12.94
-15.11
-2.35
-1.08
0.1
0.4

> <PUBCHEM_SHAPE_SELFOVERLAP>
1362.561

> <PUBCHEM_SHAPE_VOLUME>
360

> <PUBCHEM_COORDINATE_TYPE>
2
5
10

$$$$
68566340
  -OEChem-05102415093D

 45 47  0     0  0  0  0  0  0999 V2000
   -5.1458   -2.8262    0.2106 O   0  0  0  0  0  0  0  0  0  0  0  0
   -0.8593    0.1437    1.3262 O   0  0  0  0  0  0  0  0  0  0  0  0
    0.1463    1.7361   -0.0791 N   0  0  0  0  0  0  0  0  0  0  0  0
   -2.0963    1.9486    0.6343 N   0  0  0  0  0  0  0  0  0  0  0  0
    7.4022   -1.0226   -0.5287 N   0  0  0  0  0  0  0  0  0  0  0  0
    7.0795   -2.0269    0.3042 N   0  0  0  0  0  0  0  0  0  0  0  0
    1.4622    1.1237   -0.0809 C   0  0  0  0  0  0  0  0  0  0  0  0
   -3.2944    1.5614    1.3438 C   0  0  0  0  0  0  0  0  0  0  0  0
    3.9925   -0.0510   -0.0841 C   0  0  0  0  0  0  0  0  0  0  0  0
   -4.1869    0.6917    0.5064 C   0  0  0  0  0  0  0  0  0  0  0  0
    2.2802    1.2326   -1.2055 C   0  0  0  0  0  0  0  0  0  0  0  0
    1.9094    0.4276    1.0422 C   0  0  0  0  0  0  0  0  0  0  0  0
   -0.9254    1.1901    0.6755 C   0  0  0  0  0  0  0  0  0  0  0  0
    3.5453    0.6452   -1.2070 C   0  0  0  0  0  0  0  0  0  0  0  0
    3.1745   -0.1596    1.0405 C   0  0  0  0  0  0  0  0  0  0  0  0
    5.2951   -0.6552   -0.0856 C   0  0  0  0  0  0  0  0  0  0  0  0
   -0.0174    2.9918   -0.8282 C   0  0  0  0  0  0  0  0  0  0  0  0
   -4.2530   -0.6801    0.7505 C   0  0  0  0  0  0  0  0  0  0  0  0
   -4.9498    1.2559   -0.5161 C   0  0  0  0  0  0  0  0  0  0  0  0
   -5.0820   -1.4877   -0.0280 C   0  0  0  0  0  0  0  0  0  0  0  0
   -5.7787    0.4481   -1.2946 C   0  0  0  0  0  0  0  0  0  0  0  0
    6.3686   -0.1731   -0.7941 C   0  0  0  0  0  0  0  0  0  0  0  0
   -5.8447   -0.9238   -1.0507 C   0  0  0  0  0  0  0  0  0  0  0  0
    5.7912   -1.7971    0.5714 C   0  0  0  0  0  0  0  0  0  0  0  0
   -6.0134   -3.5934   -0.6230 C   0  0  0  0  0  0  0  0  0  0  0  0
   -3.8241    2.4797    1.6224 H   0  0  0  0  0  0  0  0  0  0  0  0
   -3.0198    1.0579    2.2780 H   0  0  0  0  0  0  0  0  0  0  0  0
    1.9503    1.7359   -2.1099 H   0  0  0  0  0  0  0  0  0  0  0  0
    1.3368    0.3669    1.9614 H   0  0  0  0  0  0  0  0  0  0  0  0
   -2.1798    2.7486    0.0203 H   0  0  0  0  0  0  0  0  0  0  0  0
    4.1485    0.7321   -2.1073 H   0  0  0  0  0  0  0  0  0  0  0  0
    3.5073   -0.6807    1.9350 H   0  0  0  0  0  0  0  0  0  0  0  0
   -0.4877    3.7462   -0.1896 H   0  0  0  0  0  0  0  0  0  0  0  0
    0.9380    3.4186   -1.1445 H   0  0  0  0  0  0  0  0  0  0  0  0
   -0.6497    2.8016   -1.7005 H   0  0  0  0  0  0  0  0  0  0  0  0
   -3.6607   -1.1277    1.5448 H   0  0  0  0  0  0  0  0  0  0  0  0
   -4.9064    2.3233   -0.7156 H   0  0  0  0  0  0  0  0  0  0  0  0
   -6.3722    0.8883   -2.0907 H   0  0  0  0  0  0  0  0  0  0  0  0
    6.5052    0.6791   -1.4456 H   0  0  0  0  0  0  0  0  0  0  0  0
   -6.5086   -1.4923   -1.6929 H   0  0  0  0  0  0  0  0  0  0  0  0
    5.2737   -2.4778    1.2328 H   0  0  0  0  0  0  0  0  0  0  0  0
    8.3508   -0.9759   -0.8791 H   0  0  0  0  0  0  0  0  0  0  0  0
   -5.9402   -4.6351   -0.2937 H   0  0  0  0  0  0  0  0  0  0  0  0
   -5.6934   -3.5659   -1.6701 H   0  0  0  0  0  0  0  0  0  0  0  0
   -7.0593   -3.2921   -0.5004 H   0  0  0  0  0  0  0  0  0  0  0  0
  1 20  1  0  0  0  0
  1 25  1  0  0  0  0
  2 13  2  0  0  0  0
  3  7  1  0  0  0  0
  3 13  1  0  0  0  0
  3 17  1  0  0  0  0
  4  8  1  0  0  0  0
  4 13  1  0  0  0  0
  4 30  1  0  0  0  0
  5  6  1  0  0  0  0
  5 22  1  0  0  0  0
  5 42  1  0  0  0  0
  6 24  2  0  0  0  0
  7 11  2  0  0  0  0
  7 12  1  0  0  0  0
  8 10  1  0  0  0  0
  8 26  1  0  0  0  0
  8 27  1  0  0  0  0
  9 14  2  0  0  0  0
  9 15  1  0  0  0  0
  9 16  1  0  0  0  0
 10 18  2  0  0  0  0
 10 19  1  0  0  0  0
 11 14  1  0  0  0  0
 11 28  1  0  0  0  0
 12 15  2  0  0  0  0
 12 29  1  0  0  0  0
 14 31  1  0  0  0  0
 15 32  1  0  0  0  0
 16 22  2  0  0  0  0
 16 24  1  0  0  0  0
 17 33  1  0  0  0  0
 17 34  1  0  0  0  0
 17 35  1  0  0  0  0
 18 20  1  0  0  0  0
 18 36  1  0  0  0  0
 19 21  2  0  0  0  0
 19 37  1  0  0  0  0
 20 23  2  0  0  0  0
 21 23  1  0  0  0  0
 21 38  1  0  0  0  0
 22 39  1  0  0  0  0
 23 40  1  0  0  0  0
 24 41  1  0  0  0  0
 25 43  1  0  0  0  0
 25 44  1  0  0  0  0
 25 45  1  0  0  0  0
M  END
> <PUBCHEM_COMPOUND_CID>
68566340

> <PUBCHEM_CONFORMER_RMSD>
0.8

> <PUBCHEM_CONFORMER_DIVERSEORDER>
13
103
32
87
22
96
16
37
24
41
1
27
71
53
94
84
99
86
72
107
110
26
95
57
79
69
51
12
33
10
55
78
3
47
77
58
17
39
52
98
49
38
59
31
97
65
66
60
81
56
89
30
44
92
34
88
40
15
29
85
19
8
28
83
70
63
5
11
73
54
43
101
90
21
82
2
91
108
7
62
64
20
104
106
18
100
14
4
61
46
74
80
35
102
36
67
48
42
68
105
76
9
45
6
23
93
111
75
25
109
50

> <PUBCHEM_MMFF94_PARTIAL_CHARGES>
37
1 -0.36
10 -0.14
11 -0.15
12 -0.15
13 0.69
14 -0.15
15 -0.15
16 -0.05
17 0.3
18 -0.15
19 -0.15
2 -0.57
20 0.08
21 -0.15
22 -0.3
23 -0.15
24 0.14
25 0.28
28 0.15
29 0.15
3 -0.48
30 0.37
31 0.15
32 0.15
36 0.15
37 0.15
38 0.15
39 0.15
4 -0.73
40 0.15
41 0.15
42 0.27
5 0.3
6 -0.71
7 0.12
8 0.44
9 0.05

> <PUBCHEM_EFFECTIVE_ROTOR_COUNT>
7

> <PUBCHEM_PHARMACOPHORE_FEATURES>
8
1 1 acceptor
1 2 acceptor
1 4 donor
1 5 donor
1 6 acceptor
5 5 6 16 22 24 rings
6 10 18 19 20 21 23 rings
6 7 9 11 12 14 15 rings

> <PUBCHEM_HEAVY_ATOM_COUNT>
25

> <PUBCHEM_ATOM_DEF_STEREO_COUNT>
0

> <PUBCHEM_ATOM_UDEF_STEREO_COUNT>
0

> <PUBCHEM_BOND_DEF_STEREO_COUNT>
0

> <PUBCHEM_BOND_UDEF_STEREO_COUNT>
0

> <PUBCHEM_ISOTOPIC_ATOM_COUNT>
0

> <PUBCHEM_COMPONENT_COUNT>
1

> <PUBCHEM_CACTVS_TAUTO_COUNT>
2

> <PUBCHEM_CONFORMER_ID>
04163D440000000D

> <PUBCHEM_MMFF94_ENERGY>
81.6196

> <PUBCHEM_FEATURE_SELFOVERLAP>
40.597

> <PUBCHEM_SHAPE_FINGERPRINT>
10 15 9943807807430410981
10369192 42 13695872494184648009
10391435 84 18341037597230563938
105312 117 14201121206429199761
10554248 39 13768191805885391472
10571361 74 18338229371540931234
11135609 99 18343580772490445294
11273773 46 18410849993922509519
11315181 36 17846778490673500241
11315621 136 18335140946493789143
11796584 16 18270965643840809409
12166972 35 18114183094223554501
12633257 1 15338834322114363821
13167372 99 9511460014146659878
13690498 29 18113613513399764719
13761468 95 16880177920439308317
13782708 43 17988924436338611010
14211702 104 18201729422441720574
14251751 18 18273496796801342619
14849402 71 12175034667523090402
14931854 50 18041265665414756211
15183329 4 16515681130679131664
15188451 53 17846493729883004597
15510800 12 17917720110452823607
15728490 51 18342737460193914276
17492 89 18194682794764439537
17857418 61 18409451349746846664
17913733 40 14405187244492527004
18222031 100 18260825990891870432
18927931 339 17632579340642633149
20028762 73 18410575068280528814
20281389 69 10809345550689979252
21054139 6 18334296465908560642
21307412 95 18266724957587033479
21424621 283 9367341540183439556
21623969 137 16128657427506722532
21637258 2 18272646823169219912
21756936 100 9007051357948946857
22122407 14 10447630444725984854
22393880 68 18041549326397418857
23389318 12 18333736836671292956
23402539 116 18334299716908847960
23522609 53 18122660234781221688
23559900 14 18340759455671325233
25122255 55 18272377468447826383
270888 7 8285941063940863627
2838139 119 11097865115817198018
3004659 81 18040712575866924200
312425 54 17345769468503734907
3504750 166 18048595916020711552
392239 28 15123507021318372693
397830 11 17774708840878176432
4015057 19 17822307823978248744
439807 62 18335987584007636583
44062 13 18336540608438726045
4756326 101 13829038737446614683
5104073 3 17703799162549347817
531348 171 18114460055395559893
54039377 194 18334866047760965923
559249 180 18341612595348082397
5718773 13 18201152273906654207
57724786 102 8284833860110757749
636775 72 8573842664646835238
6431902 208 18272932726267989855
6691757 9 17916877807811672273
7495541 125 17989768895665892328
7808743 9 8502654792457925825
7970288 3 18411981386074457263
96874 4 18409444799716719446

> <PUBCHEM_SHAPE_MULTIPOLES>
482.83
20
2.87
1.24
10.81
1.46
0.01
16.45
4.16
-3.78
0.35
-0.37
-0.28
-1.24

> <PUBCHEM_SHAPE_SELFOVERLAP>
1040.815

> <PUBCHEM_SHAPE_VOLUME>
266.4

> <PUBCHEM_COORDINATE_TYPE>
2
5
10

$$$$
68566289
  -OEChem-05102415093D

 49 51  0     0  0  0  0  0  0999 V2000
   -0.5921    2.8022   -2.0845 O   0  0  0  0  0  0  0  0  0  0  0  0
   -0.9801    0.4321    1.9464 O   0  0  0  0  0  0  0  0  0  0  0  0
   -4.5848   -3.2155    0.4837 O   0  0  0  0  0  0  0  0  0  0  0  0
    0.1487    1.9320    0.5328 N   0  0  0  0  0  0  0  0  0  0  0  0
   -2.2064    1.9384    0.7244 N   0  0  0  0  0  0  0  0  0  0  0  0
    6.3860   -2.6750   -0.0473 N   0  0  0  0  0  0  0  0  0  0  0  0
    7.0752   -1.6796   -0.6306 N   0  0  0  0  0  0  0  0  0  0  0  0
    1.3755    1.1738    0.3689 C   0  0  0  0  0  0  0  0  0  0  0  0
    0.1668    3.3458    0.1262 C   0  0  0  0  0  0  0  0  0  0  0  0
   -1.0041    1.3580    1.1311 C   0  0  0  0  0  0  0  0  0  0  0  0
   -3.4877    1.4969    1.2266 C   0  0  0  0  0  0  0  0  0  0  0  0
    3.7330   -0.2835    0.0515 C   0  0  0  0  0  0  0  0  0  0  0  0
    1.3222   -0.2087    0.1911 C   0  0  0  0  0  0  0  0  0  0  0  0
    2.6075    1.8278    0.3879 C   0  0  0  0  0  0  0  0  0  0  0  0
    0.4186    3.4946   -1.3631 C   0  0  0  0  0  0  0  0  0  0  0  0
    2.5010   -0.9372    0.0323 C   0  0  0  0  0  0  0  0  0  0  0  0
    3.7862    1.0991    0.2292 C   0  0  0  0  0  0  0  0  0  0  0  0
   -4.0773    0.4057    0.3804 C   0  0  0  0  0  0  0  0  0  0  0  0
    4.9464   -1.0336   -0.1125 C   0  0  0  0  0  0  0  0  0  0  0  0
   -4.0573   -0.9143    0.8305 C   0  0  0  0  0  0  0  0  0  0  0  0
   -4.6445    0.7125   -0.8566 C   0  0  0  0  0  0  0  0  0  0  0  0
   -4.6046   -1.9278    0.0438 C   0  0  0  0  0  0  0  0  0  0  0  0
    5.1057   -2.3396    0.2825 C   0  0  0  0  0  0  0  0  0  0  0  0
    6.1907   -0.6795   -0.6676 C   0  0  0  0  0  0  0  0  0  0  0  0
   -5.1918   -0.3010   -1.6432 C   0  0  0  0  0  0  0  0  0  0  0  0
   -5.1717   -1.6212   -1.1932 C   0  0  0  0  0  0  0  0  0  0  0  0
   -5.1614   -4.2023   -0.3708 C   0  0  0  0  0  0  0  0  0  0  0  0
    0.9147    3.8867    0.7148 H   0  0  0  0  0  0  0  0  0  0  0  0
   -0.7777    3.8326    0.3867 H   0  0  0  0  0  0  0  0  0  0  0  0
   -4.1558    2.3657    1.2323 H   0  0  0  0  0  0  0  0  0  0  0  0
   -3.3803    1.1717    2.2679 H   0  0  0  0  0  0  0  0  0  0  0  0
    0.3778   -0.7430    0.1410 H   0  0  0  0  0  0  0  0  0  0  0  0
    2.7083    2.8960    0.5443 H   0  0  0  0  0  0  0  0  0  0  0  0
   -2.2151    2.5751   -0.0647 H   0  0  0  0  0  0  0  0  0  0  0  0
    1.3903    3.1046   -1.6764 H   0  0  0  0  0  0  0  0  0  0  0  0
    0.3747    4.5526   -1.6415 H   0  0  0  0  0  0  0  0  0  0  0  0
    2.4219   -2.0103   -0.1232 H   0  0  0  0  0  0  0  0  0  0  0  0
    4.7344    1.6306    0.2578 H   0  0  0  0  0  0  0  0  0  0  0  0
   -3.6160   -1.1618    1.7928 H   0  0  0  0  0  0  0  0  0  0  0  0
   -4.6654    1.7373   -1.2179 H   0  0  0  0  0  0  0  0  0  0  0  0
    4.4523   -3.0538    0.7644 H   0  0  0  0  0  0  0  0  0  0  0  0
    6.4967    0.2621   -1.1017 H   0  0  0  0  0  0  0  0  0  0  0  0
   -5.6331   -0.0612   -2.6063 H   0  0  0  0  0  0  0  0  0  0  0  0
   -5.6138   -2.3586   -1.8544 H   0  0  0  0  0  0  0  0  0  0  0  0
    6.8532   -3.5613    0.0977 H   0  0  0  0  0  0  0  0  0  0  0  0
   -0.4109    2.9369   -3.0303 H   0  0  0  0  0  0  0  0  0  0  0  0
   -6.2331   -4.0305   -0.5178 H   0  0  0  0  0  0  0  0  0  0  0  0
   -4.6192   -4.2795   -1.3194 H   0  0  0  0  0  0  0  0  0  0  0  0
   -5.0589   -5.1678    0.1354 H   0  0  0  0  0  0  0  0  0  0  0  0
  1 15  1  0  0  0  0
  1 46  1  0  0  0  0
  2 10  2  0  0  0  0
  3 22  1  0  0  0  0
  3 27  1  0  0  0  0
  4  8  1  0  0  0  0
  4  9  1  0  0  0  0
  4 10  1  0  0  0  0
  5 10  1  0  0  0  0
  5 11  1  0  0  0  0
  5 34  1  0  0  0  0
  6  7  1  0  0  0  0
  6 23  1  0  0  0  0
  6 45  1  0  0  0  0
  7 24  2  0  0  0  0
  8 13  2  0  0  0  0
  8 14  1  0  0  0  0
  9 15  1  0  0  0  0
  9 28  1  0  0  0  0
  9 29  1  0  0  0  0
 11 18  1  0  0  0  0
 11 30  1  0  0  0  0
 11 31  1  0  0  0  0
 12 16  2  0  0  0  0
 12 17  1  0  0  0  0
 12 19  1  0  0  0  0
 13 16  1  0  0  0  0
 13 32  1  0  0  0  0
 14 17  2  0  0  0  0
 14 33  1  0  0  0  0
 15 35  1  0  0  0  0
 15 36  1  0  0  0  0
 16 37  1  0  0  0  0
 17 38  1  0  0  0  0
 18 20  2  0  0  0  0
 18 21  1  0  0  0  0
 19 23  2  0  0  0  0
 19 24  1  0  0  0  0
 20 22  1  0  0  0  0
 20 39  1  0  0  0  0
 21 25  2  0  0  0  0
 21 40  1  0  0  0  0
 22 26  2  0  0  0  0
 23 41  1  0  0  0  0
 24 42  1  0  0  0  0
 25 26  1  0  0  0  0
 25 43  1  0  0  0  0
 26 44  1  0  0  0  0
 27 47  1  0  0  0  0
 27 48  1  0  0  0  0
 27 49  1  0  0  0  0
M  END
> <PUBCHEM_COMPOUND_CID>
68566289

> <PUBCHEM_CONFORMER_RMSD>
1

> <PUBCHEM_CONFORMER_DIVERSEORDER>
2
81
26
103
42
29
98
22
1
57
50
87
67
10
34
91
25
38
13
66
102
77
70
35
32
52
74
6
63
104
18
80
51
76
59
100
49
95
23
72
4
97
30
3
86
48
11
5
58
14
65
84
31
47
15
20
78
106
69
89
41
40
62
61
53
9
82
54
56
96
19
83
94
73
36
12
79
55
99
60
92
21
24
27
46
71
17
39
75
93
43
85
90
16
105
8
45
88
68
37
28
101
64
7
33
44

> <PUBCHEM_MMFF94_PARTIAL_CHARGES>
40
1 -0.68
10 0.69
11 0.44
12 0.05
13 -0.15
14 -0.15
15 0.28
16 -0.15
17 -0.15
18 -0.14
19 -0.05
2 -0.57
20 -0.15
21 -0.15
22 0.08
23 -0.3
24 0.14
25 -0.15
26 -0.15
27 0.28
3 -0.36
32 0.15
33 0.15
34 0.37
37 0.15
38 0.15
39 0.15
4 -0.48
40 0.15
41 0.15
42 0.15
43 0.15
44 0.15
45 0.27
46 0.4
5 -0.73
6 0.3
7 -0.71
8 0.12
9 0.3

> <PUBCHEM_EFFECTIVE_ROTOR_COUNT>
9

> <PUBCHEM_PHARMACOPHORE_FEATURES>
10
1 1 acceptor
1 1 donor
1 2 acceptor
1 3 acceptor
1 5 donor
1 6 donor
1 7 acceptor
5 6 7 19 23 24 rings
6 18 20 21 22 25 26 rings
6 8 12 13 14 16 17 rings

> <PUBCHEM_HEAVY_ATOM_COUNT>
27

> <PUBCHEM_ATOM_DEF_STEREO_COUNT>
0

> <PUBCHEM_ATOM_UDEF_STEREO_COUNT>
0

> <PUBCHEM_BOND_DEF_STEREO_COUNT>
0

> <PUBCHEM_BOND_UDEF_STEREO_COUNT>
0

> <PUBCHEM_ISOTOPIC_ATOM_COUNT>
0

> <PUBCHEM_COMPONENT_COUNT>
1

> <PUBCHEM_CACTVS_TAUTO_COUNT>
2

> <PUBCHEM_CONFORMER_ID>
04163D1100000002

> <PUBCHEM_MMFF94_ENERGY>
84.1083

> <PUBCHEM_FEATURE_SELFOVERLAP>
50.748

> <PUBCHEM_SHAPE_FINGERPRINT>
10042902 136 18411705382880423700
10391435 84 18342164584028051978
105312 117 15068630374337966435
11273773 46 18411976976024045095
11315621 136 18336828701084560730
11315621 246 18267033760733461350
11497681 19 18341339933823364838
117089 54 17975703011000628171
12166972 35 18114466759454543319
12390115 104 8502365659306425088
12422481 6 16988564563647337742
12633257 1 15338558366265476613
12645989 146 18266184929525572934
13690498 29 18113898269541643871
13782708 43 17846499180655621046
14211702 104 18059583442896542086
14251764 30 18335698368666006606
14848178 5 18342168999032639257
14931854 50 18261940913231790351
15064986 266 18409732881270483433
15183329 4 18260827073039168530
17492 89 18267584796383981243
19319366 153 17334495394517285973
20028762 73 17988921146378488278
21033650 10 17023458647397500437
21307412 95 18409157802118305439
21756936 100 8430302529003236088
22393880 68 18187070776733367355
23379529 103 18265331901364451403
23402539 116 18188217481208909000
23522609 53 18054824765441361816
23559900 14 18339913935597956825
23569914 152 12470566784751973210
2838139 119 11169920515237497058
392239 28 15195278742022187035
4015057 19 18114196262678381624
4280585 95 18335413552120122297
439807 62 18338519746248561059
46194498 28 17606392422590882381
5104073 3 17775290481864729377
559249 180 18202282464691235409
6431902 208 18272932721661909423
7970288 3 18412824694123240090

> <PUBCHEM_SHAPE_MULTIPOLES>
518.12
16.16
4.3
1.32
10.18
0.81
0.25
18.43
3.5
-2.18
0.81
-1.29
-0.71
-0.24

> <PUBCHEM_SHAPE_SELFOVERLAP>
1109.961

> <PUBCHEM_SHAPE_VOLUME>
287.3

> <PUBCHEM_COORDINATE_TYPE>
2
5
10

$$$$
71654972
  -OEChem-05102415093D

 56 58  0     0  0  0  0  0  0999 V2000
   -1.1053   -0.3048    2.0565 O   0  0  0  0  0  0  0  0  0  0  0  0
   -4.8660   -3.4599   -0.0269 O   0  0  0  0  0  0  0  0  0  0  0  0
    0.1166    1.3537    0.9258 N   0  0  0  0  0  0  0  0  0  0  0  0
    0.5524    4.6418   -0.8208 N   0  0  0  0  0  0  0  0  0  0  0  0
   -2.2377    1.4486    1.1029 N   0  0  0  0  0  0  0  0  0  0  0  0
    6.1244   -3.4021   -0.3982 N   0  0  0  0  0  0  0  0  0  0  0  0
    6.8705   -2.3587   -0.7992 N   0  0  0  0  0  0  0  0  0  0  0  0
    0.2107    2.8133    0.7666 C   0  0  0  0  0  0  0  0  0  0  0  0
    0.4914    3.1927   -0.6800 C   0  0  0  0  0  0  0  0  0  0  0  0
    1.3064    0.5724    0.6416 C   0  0  0  0  0  0  0  0  0  0  0  0
   -1.0716    0.7464    1.4111 C   0  0  0  0  0  0  0  0  0  0  0  0
    1.1869   -0.7551    0.2301 C   0  0  0  0  0  0  0  0  0  0  0  0
    2.5690    1.1493    0.7786 C   0  0  0  0  0  0  0  0  0  0  0  0
    3.5927   -0.9290    0.0929 C   0  0  0  0  0  0  0  0  0  0  0  0
   -3.5464    0.9945    1.5154 C   0  0  0  0  0  0  0  0  0  0  0  0
    2.3300   -1.5057   -0.0443 C   0  0  0  0  0  0  0  0  0  0  0  0
    3.7121    0.3986    0.5042 C   0  0  0  0  0  0  0  0  0  0  0  0
    1.8491    5.1506   -0.3690 C   0  0  0  0  0  0  0  0  0  0  0  0
    0.3092    5.0363   -2.2098 C   0  0  0  0  0  0  0  0  0  0  0  0
   -4.1775    0.0952    0.4921 C   0  0  0  0  0  0  0  0  0  0  0  0
    4.7694   -1.7017   -0.1901 C   0  0  0  0  0  0  0  0  0  0  0  0
   -4.2297   -1.2815    0.7105 C   0  0  0  0  0  0  0  0  0  0  0  0
   -4.7113    0.6367   -0.6774 C   0  0  0  0  0  0  0  0  0  0  0  0
    4.8579   -3.0622   -0.0230 C   0  0  0  0  0  0  0  0  0  0  0  0
   -4.8156   -2.1168   -0.2407 C   0  0  0  0  0  0  0  0  0  0  0  0
    6.0375   -1.3228   -0.6698 C   0  0  0  0  0  0  0  0  0  0  0  0
   -5.2971   -0.1986   -1.6284 C   0  0  0  0  0  0  0  0  0  0  0  0
   -5.3491   -1.5754   -1.4102 C   0  0  0  0  0  0  0  0  0  0  0  0
   -5.4789   -4.2558   -1.0404 C   0  0  0  0  0  0  0  0  0  0  0  0
   -0.7058    3.3032    1.1121 H   0  0  0  0  0  0  0  0  0  0  0  0
    0.9706    3.1806    1.4634 H   0  0  0  0  0  0  0  0  0  0  0  0
    1.3930    2.7210   -1.0870 H   0  0  0  0  0  0  0  0  0  0  0  0
   -0.3424    2.7970   -1.2770 H   0  0  0  0  0  0  0  0  0  0  0  0
    0.2178   -1.2238    0.0845 H   0  0  0  0  0  0  0  0  0  0  0  0
    2.7212    2.1691    1.1140 H   0  0  0  0  0  0  0  0  0  0  0  0
   -4.1704    1.8830    1.6657 H   0  0  0  0  0  0  0  0  0  0  0  0
   -3.4701    0.4918    2.4865 H   0  0  0  0  0  0  0  0  0  0  0  0
   -2.2031    2.2136    0.4383 H   0  0  0  0  0  0  0  0  0  0  0  0
    2.1998   -2.5311   -0.3811 H   0  0  0  0  0  0  0  0  0  0  0  0
    4.6850    0.8682    0.6279 H   0  0  0  0  0  0  0  0  0  0  0  0
    2.6833    4.7256   -0.9394 H   0  0  0  0  0  0  0  0  0  0  0  0
    1.8870    6.2409   -0.4759 H   0  0  0  0  0  0  0  0  0  0  0  0
    2.0171    4.9469    0.6928 H   0  0  0  0  0  0  0  0  0  0  0  0
    1.0512    4.6112   -2.8955 H   0  0  0  0  0  0  0  0  0  0  0  0
    0.3313    6.1273   -2.3099 H   0  0  0  0  0  0  0  0  0  0  0  0
   -0.6869    4.7148   -2.5342 H   0  0  0  0  0  0  0  0  0  0  0  0
   -3.8148   -1.7115    1.6188 H   0  0  0  0  0  0  0  0  0  0  0  0
   -4.6761    1.7077   -0.8585 H   0  0  0  0  0  0  0  0  0  0  0  0
    4.1630   -3.8135    0.3264 H   0  0  0  0  0  0  0  0  0  0  0  0
    6.3961   -0.3380   -0.9352 H   0  0  0  0  0  0  0  0  0  0  0  0
   -5.7123    0.2240   -2.5388 H   0  0  0  0  0  0  0  0  0  0  0  0
   -5.8180   -2.1658   -2.1900 H   0  0  0  0  0  0  0  0  0  0  0  0
    6.5449   -4.3230   -0.4041 H   0  0  0  0  0  0  0  0  0  0  0  0
   -5.4318   -5.2974   -0.7059 H   0  0  0  0  0  0  0  0  0  0  0  0
   -4.9280   -4.1983   -1.9853 H   0  0  0  0  0  0  0  0  0  0  0  0
   -6.5385   -4.0066   -1.1618 H   0  0  0  0  0  0  0  0  0  0  0  0
  1 11  2  0  0  0  0
  2 25  1  0  0  0  0
  2 29  1  0  0  0  0
  3  8  1  0  0  0  0
  3 10  1  0  0  0  0
  3 11  1  0  0  0  0
  4  9  1  0  0  0  0
  4 18  1  0  0  0  0
  4 19  1  0  0  0  0
  5 11  1  0  0  0  0
  5 15  1  0  0  0  0
  5 38  1  0  0  0  0
  6  7  1  0  0  0  0
  6 24  1  0  0  0  0
  6 53  1  0  0  0  0
  7 26  2  0  0  0  0
  8  9  1  0  0  0  0
  8 30  1  0  0  0  0
  8 31  1  0  0  0  0
  9 32  1  0  0  0  0
  9 33  1  0  0  0  0
 10 12  2  0  0  0  0
 10 13  1  0  0  0  0
 12 16  1  0  0  0  0
 12 34  1  0  0  0  0
 13 17  2  0  0  0  0
 13 35  1  0  0  0  0
 14 16  2  0  0  0  0
 14 17  1  0  0  0  0
 14 21  1  0  0  0  0
 15 20  1  0  0  0  0
 15 36  1  0  0  0  0
 15 37  1  0  0  0  0
 16 39  1  0  0  0  0
 17 40  1  0  0  0  0
 18 41  1  0  0  0  0
 18 42  1  0  0  0  0
 18 43  1  0  0  0  0
 19 44  1  0  0  0  0
 19 45  1  0  0  0  0
 19 46  1  0  0  0  0
 20 22  2  0  0  0  0
 20 23  1  0  0  0  0
 21 24  2  0  0  0  0
 21 26  1  0  0  0  0
 22 25  1  0  0  0  0
 22 47  1  0  0  0  0
 23 27  2  0  0  0  0
 23 48  1  0  0  0  0
 24 49  1  0  0  0  0
 25 28  2  0  0  0  0
 26 50  1  0  0  0  0
 27 28  1  0  0  0  0
 27 51  1  0  0  0  0
 28 52  1  0  0  0  0
 29 54  1  0  0  0  0
 29 55  1  0  0  0  0
 29 56  1  0  0  0  0
M  END
> <PUBCHEM_COMPOUND_CID>
71654972

> <PUBCHEM_CONFORMER_RMSD>
1

> <PUBCHEM_CONFORMER_DIVERSEORDER>
1
109
71
137
81
159
121
77
166
130
49
98
44
104
12
106
177
171
114
92
30
59
102
127
80
84
99
41
82
54
150
110
123
79
2
142
107
10
37
174
157
63
160
32
17
146
33
8
35
167
7
153
156
126
67
124
176
168
48
119
39
116
61
69
118
120
133
56
73
134
62
101
70
143
21
139
152
145
122
105
173
11
20
136
90
149
83
85
57
141
72
95
111
6
103
155
28
144
93
117
29
125
65
38
19
175
151
158
55
53
162
47
76
97
161
66
68
163
112
64
87
113
108
129
22
74
3
50
5
138
9
140
131
4
115
40
86
170
165
16
34
96
15
169
60
100
46
172
148
36
14
31
42
27
25
128
135
94
132
147
75
18
43
45
51
164
23
91
78
89
13
88
24
52
26
154
58

> <PUBCHEM_MMFF94_PARTIAL_CHARGES>
41
1 -0.57
10 0.12
11 0.69
12 -0.15
13 -0.15
14 0.05
15 0.44
16 -0.15
17 -0.15
18 0.27
19 0.27
2 -0.36
20 -0.14
21 -0.05
22 -0.15
23 -0.15
24 -0.3
25 0.08
26 0.14
27 -0.15
28 -0.15
29 0.28
3 -0.48
34 0.15
35 0.15
38 0.37
39 0.15
4 -0.81
40 0.15
47 0.15
48 0.15
49 0.15
5 -0.73
50 0.15
51 0.15
52 0.15
53 0.27
6 0.3
7 -0.71
8 0.3
9 0.27

> <PUBCHEM_EFFECTIVE_ROTOR_COUNT>
10

> <PUBCHEM_PHARMACOPHORE_FEATURES>
9
1 1 acceptor
1 2 acceptor
1 4 cation
1 5 donor
1 6 donor
1 7 acceptor
5 6 7 21 24 26 rings
6 10 12 13 14 16 17 rings
6 20 22 23 25 27 28 rings

> <PUBCHEM_HEAVY_ATOM_COUNT>
29

> <PUBCHEM_ATOM_DEF_STEREO_COUNT>
0

> <PUBCHEM_ATOM_UDEF_STEREO_COUNT>
0

> <PUBCHEM_BOND_DEF_STEREO_COUNT>
0

> <PUBCHEM_BOND_UDEF_STEREO_COUNT>
0

> <PUBCHEM_ISOTOPIC_ATOM_COUNT>
0

> <PUBCHEM_COMPONENT_COUNT>
1

> <PUBCHEM_CACTVS_TAUTO_COUNT>
2

> <PUBCHEM_CONFORMER_ID>
04455E3C00000001

> <PUBCHEM_MMFF94_ENERGY>
91.2287

> <PUBCHEM_FEATURE_SELFOVERLAP>
45.671

> <PUBCHEM_SHAPE_FINGERPRINT>
10391435 84 18201144503920523098
105312 117 15647345117004895411
10940486 97 18340217293206583409
11045515 52 18334860467823228408
11069576 57 18051969526673631605
11227688 84 18114192903861054003
11315621 246 18126298454211106662
11497681 19 18272939302564130750
12166972 35 18411699932746468175
12645989 146 18269000778746414902
12788726 201 17825105905034847496
13009979 54 18130797758654779921
13540713 5 18128555923592424497
13782708 43 17774721944887361878
14508225 48 18335706001123941696
14556957 393 17751948855551872052
15803439 3 16960156765051993036
16628084 112 17686336474301223883
16989378 47 18130241452968143732
17492 89 18269835479543326707
17686467 74 18343016684766349066
19319366 153 17551510376562212725
20028762 73 17703504403234035278
21344244 246 18192997243091464604
21424621 283 8862935079146342862
22393880 68 18334282172426321579
23379529 103 18268424806135673411
23559900 14 18270668879492636281
23929065 36 17973144155495001176
249057 3 18411135793604063841
25019877 29 17181663870756733108
255183 313 17765454053332931937
2838139 119 12035741937325099762
4015057 19 18188786031841642336
4046055 25 18335703797910681812
4280585 95 18410286978309734427
46194498 28 17971741419070138413
5104073 3 17489872643635478211
5969126 39 18263646156907837364
6431902 208 18059855052032803647

> <PUBCHEM_SHAPE_MULTIPOLES>
560.16
15.13
6.44
1.51
1.51
6.85
-0.1
-22.4
-5.23
2.8
-3.71
-1.32
0.95
-0.72

> <PUBCHEM_SHAPE_SELFOVERLAP>
1187.966

> <PUBCHEM_SHAPE_VOLUME>
316

> <PUBCHEM_COORDINATE_TYPE>
2
5
10

$$$$
68563012
  -OEChem-05102415093D

 60 63  0     0  0  0  0  0  0999 V2000
    1.2794   -0.7801   -2.0725 O   0  0  0  0  0  0  0  0  0  0  0  0
    5.3047   -3.3580    0.2922 O   0  0  0  0  0  0  0  0  0  0  0  0
   -0.9070    4.2071    0.3564 N   0  0  0  0  0  0  0  0  0  0  0  0
   -0.1122    0.8809   -1.0963 N   0  0  0  0  0  0  0  0  0  0  0  0
    2.2289    1.1528   -1.2797 N   0  0  0  0  0  0  0  0  0  0  0  0
   -5.5716   -4.4199    0.5790 N   0  0  0  0  0  0  0  0  0  0  0  0
   -6.4369   -3.4401    0.8909 N   0  0  0  0  0  0  0  0  0  0  0  0
   -0.8347    4.7750    1.7023 C   0  0  0  0  0  0  0  0  0  0  0  0
   -2.2402    4.5579   -0.1326 C   0  0  0  0  0  0  0  0  0  0  0  0
   -1.4770    6.1434    1.5291 C   0  0  0  0  0  0  0  0  0  0  0  0
   -2.4033    5.9997    0.3255 C   0  0  0  0  0  0  0  0  0  0  0  0
   -0.6713    2.7710    0.3460 C   0  0  0  0  0  0  0  0  0  0  0  0
   -0.3392    2.3000   -1.0622 C   0  0  0  0  0  0  0  0  0  0  0  0
   -1.2215   -0.0158   -0.7526 C   0  0  0  0  0  0  0  0  0  0  0  0
    1.1387    0.3165   -1.5248 C   0  0  0  0  0  0  0  0  0  0  0  0
   -2.5394    0.4001   -0.9422 C   0  0  0  0  0  0  0  0  0  0  0  0
   -0.9579   -1.2840   -0.2350 C   0  0  0  0  0  0  0  0  0  0  0  0
    3.5792    0.7919   -1.6480 C   0  0  0  0  0  0  0  0  0  0  0  0
   -3.5937   -0.4521   -0.6142 C   0  0  0  0  0  0  0  0  0  0  0  0
   -2.0122   -2.1362    0.0932 C   0  0  0  0  0  0  0  0  0  0  0  0
   -3.3301   -1.7204   -0.0967 C   0  0  0  0  0  0  0  0  0  0  0  0
    4.2834    0.0531   -0.5468 C   0  0  0  0  0  0  0  0  0  0  0  0
   -4.4155   -2.5976    0.2417 C   0  0  0  0  0  0  0  0  0  0  0  0
    4.4696   -1.3262   -0.6399 C   0  0  0  0  0  0  0  0  0  0  0  0
    4.7511    0.7464    0.5696 C   0  0  0  0  0  0  0  0  0  0  0  0
   -4.3465   -3.9683    0.1842 C   0  0  0  0  0  0  0  0  0  0  0  0
   -5.7251   -2.3292    0.6828 C   0  0  0  0  0  0  0  0  0  0  0  0
    5.1234   -2.0122    0.3835 C   0  0  0  0  0  0  0  0  0  0  0  0
    5.4049    0.0603    1.5929 C   0  0  0  0  0  0  0  0  0  0  0  0
    5.5910   -1.3191    1.5001 C   0  0  0  0  0  0  0  0  0  0  0  0
    5.9809   -3.9969    1.3742 C   0  0  0  0  0  0  0  0  0  0  0  0
   -1.4120    4.1822    2.4235 H   0  0  0  0  0  0  0  0  0  0  0  0
    0.1957    4.8571    2.0624 H   0  0  0  0  0  0  0  0  0  0  0  0
   -2.3253    4.4803   -1.2207 H   0  0  0  0  0  0  0  0  0  0  0  0
   -3.0214    3.9367    0.3241 H   0  0  0  0  0  0  0  0  0  0  0  0
   -0.7175    6.9068    1.3232 H   0  0  0  0  0  0  0  0  0  0  0  0
   -2.0234    6.4472    2.4277 H   0  0  0  0  0  0  0  0  0  0  0  0
   -3.4430    6.2230    0.5855 H   0  0  0  0  0  0  0  0  0  0  0  0
   -2.0968    6.6967   -0.4633 H   0  0  0  0  0  0  0  0  0  0  0  0
    0.1990    2.5441    0.9775 H   0  0  0  0  0  0  0  0  0  0  0  0
   -1.5123    2.2319    0.7964 H   0  0  0  0  0  0  0  0  0  0  0  0
   -1.1338    2.5400   -1.7771 H   0  0  0  0  0  0  0  0  0  0  0  0
    0.5237    2.8527   -1.4490 H   0  0  0  0  0  0  0  0  0  0  0  0
   -2.7962    1.3688   -1.3571 H   0  0  0  0  0  0  0  0  0  0  0  0
    0.0547   -1.6261   -0.0420 H   0  0  0  0  0  0  0  0  0  0  0  0
    2.1143    1.9685   -0.6885 H   0  0  0  0  0  0  0  0  0  0  0  0
    4.1166    1.7192   -1.8772 H   0  0  0  0  0  0  0  0  0  0  0  0
    3.5610    0.1989   -2.5697 H   0  0  0  0  0  0  0  0  0  0  0  0
   -4.6116   -0.1078   -0.7797 H   0  0  0  0  0  0  0  0  0  0  0  0
   -1.7714   -3.1096    0.5131 H   0  0  0  0  0  0  0  0  0  0  0  0
    4.1069   -1.8740   -1.5062 H   0  0  0  0  0  0  0  0  0  0  0  0
    4.6116    1.8209    0.6532 H   0  0  0  0  0  0  0  0  0  0  0  0
   -3.5659   -4.6606   -0.1000 H   0  0  0  0  0  0  0  0  0  0  0  0
   -6.1970   -1.3740    0.8661 H   0  0  0  0  0  0  0  0  0  0  0  0
    5.7685    0.6010    2.4620 H   0  0  0  0  0  0  0  0  0  0  0  0
    6.1066   -1.7891    2.3306 H   0  0  0  0  0  0  0  0  0  0  0  0
   -5.8848   -5.3794    0.6569 H   0  0  0  0  0  0  0  0  0  0  0  0
    6.0372   -5.0639    1.1352 H   0  0  0  0  0  0  0  0  0  0  0  0
    5.4176   -3.9080    2.3093 H   0  0  0  0  0  0  0  0  0  0  0  0
    7.0105   -3.6368    1.4739 H   0  0  0  0  0  0  0  0  0  0  0  0
  1 15  2  0  0  0  0
  2 28  1  0  0  0  0
  2 31  1  0  0  0  0
  3  8  1  0  0  0  0
  3  9  1  0  0  0  0
  3 12  1  0  0  0  0
  4 13  1  0  0  0  0
  4 14  1  0  0  0  0
  4 15  1  0  0  0  0
  5 15  1  0  0  0  0
  5 18  1  0  0  0  0
  5 46  1  0  0  0  0
  6  7  1  0  0  0  0
  6 26  1  0  0  0  0
  6 57  1  0  0  0  0
  7 27  2  0  0  0  0
  8 10  1  0  0  0  0
  8 32  1  0  0  0  0
  8 33  1  0  0  0  0
  9 11  1  0  0  0  0
  9 34  1  0  0  0  0
  9 35  1  0  0  0  0
 10 11  1  0  0  0  0
 10 36  1  0  0  0  0
 10 37  1  0  0  0  0
 11 38  1  0  0  0  0
 11 39  1  0  0  0  0
 12 13  1  0  0  0  0
 12 40  1  0  0  0  0
 12 41  1  0  0  0  0
 13 42  1  0  0  0  0
 13 43  1  0  0  0  0
 14 16  2  0  0  0  0
 14 17  1  0  0  0  0
 16 19  1  0  0  0  0
 16 44  1  0  0  0  0
 17 20  2  0  0  0  0
 17 45  1  0  0  0  0
 18 22  1  0  0  0  0
 18 47  1  0  0  0  0
 18 48  1  0  0  0  0
 19 21  2  0  0  0  0
 19 49  1  0  0  0  0
 20 21  1  0  0  0  0
 20 50  1  0  0  0  0
 21 23  1  0  0  0  0
 22 24  2  0  0  0  0
 22 25  1  0  0  0  0
 23 26  2  0  0  0  0
 23 27  1  0  0  0  0
 24 28  1  0  0  0  0
 24 51  1  0  0  0  0
 25 29  2  0  0  0  0
 25 52  1  0  0  0  0
 26 53  1  0  0  0  0
 27 54  1  0  0  0  0
 28 30  2  0  0  0  0
 29 30  1  0  0  0  0
 29 55  1  0  0  0  0
 30 56  1  0  0  0  0
 31 58  1  0  0  0  0
 31 59  1  0  0  0  0
 31 60  1  0  0  0  0
M  END
> <PUBCHEM_COMPOUND_CID>
68563012

> <PUBCHEM_CONFORMER_RMSD>
1

> <PUBCHEM_CONFORMER_DIVERSEORDER>
1
92
100
176
83
130
217
212
129
197
143
99
68
213
180
102
153
211
24
204
56
214
53
232
125
87
151
44
188
131
124
223
154
193
103
144
136
189
195
239
185
181
156
82
97
108
107
149
94
236
17
220
120
119
52
169
18
9
198
80
61
237
186
194
116
21
150
164
224
63
90
101
15
78
113
37
32
167
38
142
155
152
157
174
16
234
88
71
64
199
31
210
159
209
187
182
225
139
206
69
177
55
170
106
105
221
35
43
162
89
118
117
219
128
192
85
19
132
62
13
173
2
93
222
137
231
12
218
227
191
22
104
215
91
179
123
168
207
165
70
135
140
26
112
7
158
10
147
202
114
203
183
121
50
145
75
110
58
111
126
134
49
171
23
141
216
109
33
160
208
122
41
226
84
228
54
86
36
27
39
201
115
161
190
42
77
76
6
74
233
45
238
196
28
230
205
60
73
133
5
57
46
166
178
72
48
51
34
81
235
4
66
163
184
172
40
229
200
95
127
65
47
175
30
138
98
8
148
96
146
79
14
67
29
20
59
3
25
11

> <PUBCHEM_MMFF94_PARTIAL_CHARGES>
41
1 -0.57
12 0.27
13 0.3
14 0.12
15 0.69
16 -0.15
17 -0.15
18 0.44
19 -0.15
2 -0.36
20 -0.15
21 0.05
22 -0.14
23 -0.05
24 -0.15
25 -0.15
26 -0.3
27 0.14
28 0.08
29 -0.15
3 -0.81
30 -0.15
31 0.28
4 -0.48
44 0.15
45 0.15
46 0.37
49 0.15
5 -0.73
50 0.15
51 0.15
52 0.15
53 0.15
54 0.15
55 0.15
56 0.15
57 0.27
6 0.3
7 -0.71
8 0.27
9 0.27

> <PUBCHEM_EFFECTIVE_ROTOR_COUNT>
11

> <PUBCHEM_PHARMACOPHORE_FEATURES>
10
1 1 acceptor
1 2 acceptor
1 3 cation
1 5 donor
1 6 donor
1 7 acceptor
5 3 8 9 10 11 rings
5 6 7 23 26 27 rings
6 14 16 17 19 20 21 rings
6 22 24 25 28 29 30 rings

> <PUBCHEM_HEAVY_ATOM_COUNT>
31

> <PUBCHEM_ATOM_DEF_STEREO_COUNT>
0

> <PUBCHEM_ATOM_UDEF_STEREO_COUNT>
0

> <PUBCHEM_BOND_DEF_STEREO_COUNT>
0

> <PUBCHEM_BOND_UDEF_STEREO_COUNT>
0

> <PUBCHEM_ISOTOPIC_ATOM_COUNT>
0

> <PUBCHEM_COMPONENT_COUNT>
1

> <PUBCHEM_CACTVS_TAUTO_COUNT>
2

> <PUBCHEM_CONFORMER_ID>
0416304400000001

> <PUBCHEM_MMFF94_ENERGY>
89.1864

> <PUBCHEM_FEATURE_SELFOVERLAP>
50.747

> <PUBCHEM_SHAPE_FINGERPRINT>
10074138 170 18197778808702113857
11399510 152 18199444638064861418
12107183 9 17832983846382581456
12539765 74 9582979960094900475
12677640 9 18122900924140983690
12788726 201 18337965557748602116
12925494 130 17764578829471498194
13540713 5 18042985207158154148
13692114 37 17981325595351664181
13782708 43 17532369958325263891
13835254 42 18411419531516512056
13955234 65 17619357940925305233
14866123 147 18194117408905392801
15347590 135 18193831764307216344
15775530 1 17627252060112286117
15878777 1 16183185361481766733
16090146 7 17469004823615546569
16758388 162 18265348364797114979
17492 89 18333446530873121374
17980427 26 17405986740045440349
19301679 30 18411143519311687295
21033648 29 16773533113448125563
21344244 78 18267017435304214960
21639891 77 18336258020823340861
21703447 108 17330278784309572455
21792965 20 18124284303828549883
22889206 1 17762056944733774840
23845131 108 17762339111327086801
32027 91 18120929775462105247
345986 75 18187917409071032650
3886686 26 17905888072436927750
4058900 60 16827297329444815129
4144715 1 18198340646796380432
6058803 2 18116170904273850764
6086070 43 18338790243689341687
6679774 75 17106535383438371842
6697151 62 18198614635592548487
79837 15 18052260591827601717
9777508 108 18053396400244835589
9896288 288 18268426837523335466
9981440 41 17199367219223194932

> <PUBCHEM_SHAPE_MULTIPOLES>
601.32
14.31
8.8
1.56
11.5
12.35
-0.1
-22.21
6.04
-13.63
5.09
1.33
0.62
-0.91

> <PUBCHEM_SHAPE_SELFOVERLAP>
1287.218

> <PUBCHEM_SHAPE_VOLUME>
334.4

> <PUBCHEM_COORDINATE_TYPE>
2
5
10

$$$$
71654973
  -OEChem-05102415093D

 59 61  0     0  0  0  0  0  0999 V2000
   -0.5472    1.8369   -1.9059 O   0  0  0  0  0  0  0  0  0  0  0  0
   -5.7406    0.0509    2.0623 O   0  0  0  0  0  0  0  0  0  0  0  0
    0.1784   -0.4228   -1.7770 N   0  0  0  0  0  0  0  0  0  0  0  0
   -0.9103   -3.7526    0.8227 N   0  0  0  0  0  0  0  0  0  0  0  0
   -2.1091    0.1557   -1.9219 N   0  0  0  0  0  0  0  0  0  0  0  0
    6.8583    1.7280    1.6090 N   0  0  0  0  0  0  0  0  0  0  0  0
    7.3500    0.4885    1.4424 N   0  0  0  0  0  0  0  0  0  0  0  0
    0.0010   -2.8340   -1.2903 C   0  0  0  0  0  0  0  0  0  0  0  0
   -0.0488   -1.7255   -2.3400 C   0  0  0  0  0  0  0  0  0  0  0  0
   -1.0131   -2.6750   -0.1538 C   0  0  0  0  0  0  0  0  0  0  0  0
    1.4797   -0.1419   -1.1598 C   0  0  0  0  0  0  0  0  0  0  0  0
   -0.7976    0.6293   -1.8645 C   0  0  0  0  0  0  0  0  0  0  0  0
    2.6148   -0.8367   -1.5777 C   0  0  0  0  0  0  0  0  0  0  0  0
    1.5812    0.8192   -0.1540 C   0  0  0  0  0  0  0  0  0  0  0  0
   -2.1364   -3.8469    1.6173 C   0  0  0  0  0  0  0  0  0  0  0  0
    0.2462   -3.5483    1.6966 C   0  0  0  0  0  0  0  0  0  0  0  0
    3.9529    0.3910    0.0157 C   0  0  0  0  0  0  0  0  0  0  0  0
   -3.2470    1.0399   -2.0324 C   0  0  0  0  0  0  0  0  0  0  0  0
    3.8513   -0.5701   -0.9900 C   0  0  0  0  0  0  0  0  0  0  0  0
    2.8178    1.0857    0.4337 C   0  0  0  0  0  0  0  0  0  0  0  0
   -3.7736    1.4488   -0.6871 C   0  0  0  0  0  0  0  0  0  0  0  0
    5.2258    0.6651    0.6212 C   0  0  0  0  0  0  0  0  0  0  0  0
   -4.5214    0.5489    0.0723 C   0  0  0  0  0  0  0  0  0  0  0  0
   -3.5153    2.7290   -0.1972 C   0  0  0  0  0  0  0  0  0  0  0  0
    5.5895    1.8863    1.1342 C   0  0  0  0  0  0  0  0  0  0  0  0
    6.3482   -0.1563    0.8384 C   0  0  0  0  0  0  0  0  0  0  0  0
   -5.0109    0.9293    1.3218 C   0  0  0  0  0  0  0  0  0  0  0  0
   -4.0048    3.1093    1.0522 C   0  0  0  0  0  0  0  0  0  0  0  0
   -4.7528    2.2095    1.8118 C   0  0  0  0  0  0  0  0  0  0  0  0
   -5.9664   -1.2411    1.5002 C   0  0  0  0  0  0  0  0  0  0  0  0
    1.0148   -2.9107   -0.8877 H   0  0  0  0  0  0  0  0  0  0  0  0
   -0.1860   -3.7890   -1.7995 H   0  0  0  0  0  0  0  0  0  0  0  0
    0.6870   -1.9134   -3.1299 H   0  0  0  0  0  0  0  0  0  0  0  0
   -1.0045   -1.7729   -2.8714 H   0  0  0  0  0  0  0  0  0  0  0  0
   -2.0085   -2.6999   -0.6161 H   0  0  0  0  0  0  0  0  0  0  0  0
   -0.9205   -1.6960    0.3325 H   0  0  0  0  0  0  0  0  0  0  0  0
    2.5919   -1.5784   -2.3687 H   0  0  0  0  0  0  0  0  0  0  0  0
    0.7121    1.3527    0.2198 H   0  0  0  0  0  0  0  0  0  0  0  0
   -2.3051   -0.8224   -1.7495 H   0  0  0  0  0  0  0  0  0  0  0  0
   -2.9980   -4.0626    0.9754 H   0  0  0  0  0  0  0  0  0  0  0  0
   -2.0688   -4.6728    2.3342 H   0  0  0  0  0  0  0  0  0  0  0  0
   -2.3409   -2.9237    2.1717 H   0  0  0  0  0  0  0  0  0  0  0  0
    0.1943   -2.5966    2.2384 H   0  0  0  0  0  0  0  0  0  0  0  0
    0.3093   -4.3545    2.4368 H   0  0  0  0  0  0  0  0  0  0  0  0
    1.1883   -3.5797    1.1414 H   0  0  0  0  0  0  0  0  0  0  0  0
   -4.0249    0.5075   -2.5918 H   0  0  0  0  0  0  0  0  0  0  0  0
   -2.9717    1.9172   -2.6292 H   0  0  0  0  0  0  0  0  0  0  0  0
    4.7226   -1.1183   -1.3402 H   0  0  0  0  0  0  0  0  0  0  0  0
    2.8573    1.8263    1.2286 H   0  0  0  0  0  0  0  0  0  0  0  0
   -4.6906   -0.4329   -0.3578 H   0  0  0  0  0  0  0  0  0  0  0  0
   -2.9331    3.4398   -0.7775 H   0  0  0  0  0  0  0  0  0  0  0  0
    5.0870    2.8413    1.2034 H   0  0  0  0  0  0  0  0  0  0  0  0
    6.4848   -1.1989    0.5872 H   0  0  0  0  0  0  0  0  0  0  0  0
   -3.8035    4.1059    1.4340 H   0  0  0  0  0  0  0  0  0  0  0  0
   -5.1314    2.5116    2.7844 H   0  0  0  0  0  0  0  0  0  0  0  0
    7.4459    2.4213    2.0551 H   0  0  0  0  0  0  0  0  0  0  0  0
   -6.5621   -1.8081    2.2231 H   0  0  0  0  0  0  0  0  0  0  0  0
   -5.0281   -1.7891    1.3606 H   0  0  0  0  0  0  0  0  0  0  0  0
   -6.5548   -1.1820    0.5783 H   0  0  0  0  0  0  0  0  0  0  0  0
  1 12  2  0  0  0  0
  2 27  1  0  0  0  0
  2 30  1  0  0  0  0
  3  9  1  0  0  0  0
  3 11  1  0  0  0  0
  3 12  1  0  0  0  0
  4 10  1  0  0  0  0
  4 15  1  0  0  0  0
  4 16  1  0  0  0  0
  5 12  1  0  0  0  0
  5 18  1  0  0  0  0
  5 39  1  0  0  0  0
  6  7  1  0  0  0  0
  6 25  1  0  0  0  0
  6 56  1  0  0  0  0
  7 26  2  0  0  0  0
  8  9  1  0  0  0  0
  8 10  1  0  0  0  0
  8 31  1  0  0  0  0
  8 32  1  0  0  0  0
  9 33  1  0  0  0  0
  9 34  1  0  0  0  0
 10 35  1  0  0  0  0
 10 36  1  0  0  0  0
 11 13  2  0  0  0  0
 11 14  1  0  0  0  0
 13 19  1  0  0  0  0
 13 37  1  0  0  0  0
 14 20  2  0  0  0  0
 14 38  1  0  0  0  0
 15 40  1  0  0  0  0
 15 41  1  0  0  0  0
 15 42  1  0  0  0  0
 16 43  1  0  0  0  0
 16 44  1  0  0  0  0
 16 45  1  0  0  0  0
 17 19  2  0  0  0  0
 17 20  1  0  0  0  0
 17 22  1  0  0  0  0
 18 21  1  0  0  0  0
 18 46  1  0  0  0  0
 18 47  1  0  0  0  0
 19 48  1  0  0  0  0
 20 49  1  0  0  0  0
 21 23  2  0  0  0  0
 21 24  1  0  0  0  0
 22 25  2  0  0  0  0
 22 26  1  0  0  0  0
 23 27  1  0  0  0  0
 23 50  1  0  0  0  0
 24 28  2  0  0  0  0
 24 51  1  0  0  0  0
 25 52  1  0  0  0  0
 26 53  1  0  0  0  0
 27 29  2  0  0  0  0
 28 29  1  0  0  0  0
 28 54  1  0  0  0  0
 29 55  1  0  0  0  0
 30 57  1  0  0  0  0
 30 58  1  0  0  0  0
 30 59  1  0  0  0  0
M  END
> <PUBCHEM_COMPOUND_CID>
71654973

> <PUBCHEM_CONFORMER_RMSD>
1.2

> <PUBCHEM_CONFORMER_DIVERSEORDER>
1
26
55
56
33
67
13
123
97
121
116
64
83
110
50
86
28
29
95
104
109
61
3
9
39
106
32
122
101
59
16
43
19
107
111
57
100
93
80
23
118
115
87
71
79
52
18
103
37
76
108
75
82
65
31
49
41
4
34
15
24
53
117
8
74
99
85
77
68
91
120
47
102
51
98
11
112
22
84
20
94
63
58
21
36
70
66
44
119
96
38
92
45
2
7
17
14
46
5
30
40
89
114
72
27
10
25
6
62
73
42
88
35
12
54
90
69
48
105
81
60
113
78

> <PUBCHEM_MMFF94_PARTIAL_CHARGES>
41
1 -0.57
10 0.27
11 0.12
12 0.69
13 -0.15
14 -0.15
15 0.27
16 0.27
17 0.05
18 0.44
19 -0.15
2 -0.36
20 -0.15
21 -0.14
22 -0.05
23 -0.15
24 -0.15
25 -0.3
26 0.14
27 0.08
28 -0.15
29 -0.15
3 -0.48
30 0.28
37 0.15
38 0.15
39 0.37
4 -0.81
48 0.15
49 0.15
5 -0.73
50 0.15
51 0.15
52 0.15
53 0.15
54 0.15
55 0.15
56 0.27
6 0.3
7 -0.71
9 0.3

> <PUBCHEM_EFFECTIVE_ROTOR_COUNT>
11

> <PUBCHEM_PHARMACOPHORE_FEATURES>
9
1 1 acceptor
1 2 acceptor
1 4 cation
1 5 donor
1 6 donor
1 7 acceptor
5 6 7 22 25 26 rings
6 11 13 14 17 19 20 rings
6 21 23 24 27 28 29 rings

> <PUBCHEM_HEAVY_ATOM_COUNT>
30

> <PUBCHEM_ATOM_DEF_STEREO_COUNT>
0

> <PUBCHEM_ATOM_UDEF_STEREO_COUNT>
0

> <PUBCHEM_BOND_DEF_STEREO_COUNT>
0

> <PUBCHEM_BOND_UDEF_STEREO_COUNT>
0

> <PUBCHEM_ISOTOPIC_ATOM_COUNT>
0

> <PUBCHEM_COMPONENT_COUNT>
1

> <PUBCHEM_CACTVS_TAUTO_COUNT>
2

> <PUBCHEM_CONFORMER_ID>
04455E3D00000001

> <PUBCHEM_MMFF94_ENERGY>
90.662

> <PUBCHEM_FEATURE_SELFOVERLAP>
45.671

> <PUBCHEM_SHAPE_FINGERPRINT>
10074138 170 18187926243492096146
10577160 103 10375576111101211730
10906281 52 17989207075510350860
11007060 377 18265029466514651028
11227688 84 13841358760317501416
12422481 6 17168138975880898890
12717326 150 14348000528209472272
12838863 1 18043531819204629251
131258 38 14782958742190920121
13782708 43 15068616051339848032
14020679 6 18339354262551497888
14114207 22 14202495536272194897
14178342 30 18116453453097574781
15320295 40 17969780964332501275
15338160 23 18196091268885827348
17913733 40 18262233305255114458
20028762 73 15357696379833462968
21033648 29 18338812121419408089
21344244 78 17399529308066309067
21401589 2 18202560687459629751
22122407 14 17488454351588753128
229767 44 18041283265510169267
244849 19 17987542375681668974
255183 313 18261387871013209006
255183 451 9582358744351481665
2838139 119 16917058958833002576
392239 28 18340495555795085449
5104073 3 18271247097226508981
563151 248 17822286886434109458
6376802 137 18055063535473488551
7288768 16 18342173349665795909

> <PUBCHEM_SHAPE_MULTIPOLES>
580.74
15.35
4.02
2.42
14.84
3.83
0.52
-10.77
-11.96
-3.6
-2
-1.18
0.45
1.66

> <PUBCHEM_SHAPE_SELFOVERLAP>
1225.827

> <PUBCHEM_SHAPE_VOLUME>
327.9

> <PUBCHEM_COORDINATE_TYPE>
2
5
10

$$$$
68568011
  -OEChem-05102415093D

 45 47  0     0  0  0  0  0  0999 V2000
    3.7147   -3.1938    0.1553 O   0  0  0  0  0  0  0  0  0  0  0  0
    1.1557    0.8399    1.8220 O   0  0  0  0  0  0  0  0  0  0  0  0
    2.3596    2.0319    0.2443 N   0  0  0  0  0  0  0  0  0  0  0  0
    0.0035    2.0525    0.2049 N   0  0  0  0  0  0  0  0  0  0  0  0
   -7.1736   -0.7997   -0.3315 N   0  0  0  0  0  0  0  0  0  0  0  0
   -6.6840   -2.0512   -0.3149 N   0  0  0  0  0  0  0  0  0  0  0  0
    3.6715    1.6623    0.7715 C   0  0  0  0  0  0  0  0  0  0  0  0
    4.2160    0.4297    0.1094 C   0  0  0  0  0  0  0  0  0  0  0  0
    1.1570    1.5752    0.8322 C   0  0  0  0  0  0  0  0  0  0  0  0
   -1.2573    1.4126    0.1100 C   0  0  0  0  0  0  0  0  0  0  0  0
    3.7061   -0.8250    0.4436 C   0  0  0  0  0  0  0  0  0  0  0  0
   -3.7387    0.1522   -0.0795 C   0  0  0  0  0  0  0  0  0  0  0  0
    5.2323    0.5393   -0.8397 C   0  0  0  0  0  0  0  0  0  0  0  0
    2.3689    2.9012   -0.9255 C   0  0  0  0  0  0  0  0  0  0  0  0
   -1.4470    0.1562    0.6854 C   0  0  0  0  0  0  0  0  0  0  0  0
   -2.3081    2.0388   -0.5603 C   0  0  0  0  0  0  0  0  0  0  0  0
    4.2126   -1.9700   -0.1713 C   0  0  0  0  0  0  0  0  0  0  0  0
   -2.6877   -0.4740    0.5906 C   0  0  0  0  0  0  0  0  0  0  0  0
   -3.5489    1.4085   -0.6552 C   0  0  0  0  0  0  0  0  0  0  0  0
   -5.0159   -0.4967   -0.1775 C   0  0  0  0  0  0  0  0  0  0  0  0
    5.7389   -0.6057   -1.4545 C   0  0  0  0  0  0  0  0  0  0  0  0
    5.2291   -1.8603   -1.1203 C   0  0  0  0  0  0  0  0  0  0  0  0
   -6.2156    0.1680   -0.2516 C   0  0  0  0  0  0  0  0  0  0  0  0
   -5.3654   -1.8597   -0.2207 C   0  0  0  0  0  0  0  0  0  0  0  0
    2.6764   -3.2322    1.1333 C   0  0  0  0  0  0  0  0  0  0  0  0
    3.5821    1.4722    1.8484 H   0  0  0  0  0  0  0  0  0  0  0  0
    4.3529    2.5159    0.6711 H   0  0  0  0  0  0  0  0  0  0  0  0
    2.9293   -0.8616    1.1971 H   0  0  0  0  0  0  0  0  0  0  0  0
    5.6387    1.5103   -1.1098 H   0  0  0  0  0  0  0  0  0  0  0  0
    0.0651    2.9380   -0.2890 H   0  0  0  0  0  0  0  0  0  0  0  0
    3.3537    2.9062   -1.4012 H   0  0  0  0  0  0  0  0  0  0  0  0
    1.6381    2.5592   -1.6639 H   0  0  0  0  0  0  0  0  0  0  0  0
    2.1198    3.9171   -0.6054 H   0  0  0  0  0  0  0  0  0  0  0  0
   -0.6622   -0.3881    1.1965 H   0  0  0  0  0  0  0  0  0  0  0  0
   -2.1722    3.0164   -1.0158 H   0  0  0  0  0  0  0  0  0  0  0  0
   -2.8103   -1.4529    1.0477 H   0  0  0  0  0  0  0  0  0  0  0  0
   -4.3415    1.9193   -1.1960 H   0  0  0  0  0  0  0  0  0  0  0  0
    6.5301   -0.5204   -2.1936 H   0  0  0  0  0  0  0  0  0  0  0  0
    5.6277   -2.7487   -1.6026 H   0  0  0  0  0  0  0  0  0  0  0  0
   -6.4850    1.2152   -0.2484 H   0  0  0  0  0  0  0  0  0  0  0  0
   -4.7206   -2.7268   -0.1907 H   0  0  0  0  0  0  0  0  0  0  0  0
   -8.1764   -0.6776   -0.3977 H   0  0  0  0  0  0  0  0  0  0  0  0
    2.3972   -4.2826    1.2662 H   0  0  0  0  0  0  0  0  0  0  0  0
    1.7794   -2.7050    0.7905 H   0  0  0  0  0  0  0  0  0  0  0  0
    3.0259   -2.8699    2.1061 H   0  0  0  0  0  0  0  0  0  0  0  0
  1 17  1  0  0  0  0
  1 25  1  0  0  0  0
  2  9  2  0  0  0  0
  3  7  1  0  0  0  0
  3  9  1  0  0  0  0
  3 14  1  0  0  0  0
  4  9  1  0  0  0  0
  4 10  1  0  0  0  0
  4 30  1  0  0  0  0
  5  6  1  0  0  0  0
  5 23  1  0  0  0  0
  5 42  1  0  0  0  0
  6 24  2  0  0  0  0
  7  8  1  0  0  0  0
  7 26  1  0  0  0  0
  7 27  1  0  0  0  0
  8 11  2  0  0  0  0
  8 13  1  0  0  0  0
 10 15  2  0  0  0  0
 10 16  1  0  0  0  0
 11 17  1  0  0  0  0
 11 28  1  0  0  0  0
 12 18  2  0  0  0  0
 12 19  1  0  0  0  0
 12 20  1  0  0  0  0
 13 21  2  0  0  0  0
 13 29  1  0  0  0  0
 14 31  1  0  0  0  0
 14 32  1  0  0  0  0
 14 33  1  0  0  0  0
 15 18  1  0  0  0  0
 15 34  1  0  0  0  0
 16 19  2  0  0  0  0
 16 35  1  0  0  0  0
 17 22  2  0  0  0  0
 18 36  1  0  0  0  0
 19 37  1  0  0  0  0
 20 23  2  0  0  0  0
 20 24  1  0  0  0  0
 21 22  1  0  0  0  0
 21 38  1  0  0  0  0
 22 39  1  0  0  0  0
 23 40  1  0  0  0  0
 24 41  1  0  0  0  0
 25 43  1  0  0  0  0
 25 44  1  0  0  0  0
 25 45  1  0  0  0  0
M  END
> <PUBCHEM_COMPOUND_CID>
68568011

> <PUBCHEM_CONFORMER_RMSD>
1

> <PUBCHEM_CONFORMER_DIVERSEORDER>
1
39
126
98
13
68
24
121
60
52
26
106
80
74
105
83
35
84
120
8
61
65
21
59
87
15
103
53
112
5
23
70
102
72
51
44
127
113
30
94
64
100
91
110
11
34
111
123
66
32
49
20
122
27
90
118
4
99
63
92
3
38
71
18
124
77
76
79
46
28
114
73
58
16
55
40
116
42
43
33
117
95
9
119
89
2
69
104
81
19
6
45
37
54
36
7
115
12
75
107
14
125
41
48
17
109
93
57
108
25
29
88
86
22
10
62
31
47
96
101
50
67
56
85
78
82
97

> <PUBCHEM_MMFF94_PARTIAL_CHARGES>
37
1 -0.36
10 0.12
11 -0.15
12 0.05
13 -0.15
14 0.3
15 -0.15
16 -0.15
17 0.08
18 -0.15
19 -0.15
2 -0.57
20 -0.05
21 -0.15
22 -0.15
23 -0.3
24 0.14
25 0.28
28 0.15
29 0.15
3 -0.66
30 0.37
34 0.15
35 0.15
36 0.15
37 0.15
38 0.15
39 0.15
4 -0.55
40 0.15
41 0.15
42 0.27
5 0.3
6 -0.71
7 0.44
8 -0.14
9 0.69

> <PUBCHEM_EFFECTIVE_ROTOR_COUNT>
7

> <PUBCHEM_PHARMACOPHORE_FEATURES>
8
1 1 acceptor
1 2 acceptor
1 4 donor
1 5 donor
1 6 acceptor
5 5 6 20 23 24 rings
6 10 12 15 16 18 19 rings
6 8 11 13 17 21 22 rings

> <PUBCHEM_HEAVY_ATOM_COUNT>
25

> <PUBCHEM_ATOM_DEF_STEREO_COUNT>
0

> <PUBCHEM_ATOM_UDEF_STEREO_COUNT>
0

> <PUBCHEM_BOND_DEF_STEREO_COUNT>
0

> <PUBCHEM_BOND_UDEF_STEREO_COUNT>
0

> <PUBCHEM_ISOTOPIC_ATOM_COUNT>
0

> <PUBCHEM_COMPONENT_COUNT>
1

> <PUBCHEM_CACTVS_TAUTO_COUNT>
2

> <PUBCHEM_CONFORMER_ID>
041643CB00000001

> <PUBCHEM_MMFF94_ENERGY>
77.7917

> <PUBCHEM_FEATURE_SELFOVERLAP>
40.597

> <PUBCHEM_SHAPE_FINGERPRINT>
117089 54 17629498397350894782
11796584 16 18129385886903596052
12596602 18 17346885567194897313
13073987 5 17846780723713759025
13150687 139 17970366987124323100
13383661 66 17702401563117270886
13533116 47 18059574732190876993
1361 2 18335139834118137682
13617811 41 17894348899856124221
13668630 136 17918281947629523454
13685833 64 18202002131553307136
13955234 65 17915733382809107168
14251740 57 18131071502811514206
14347332 77 18336822014189901805
14556957 393 14346057717228485495
14617045 38 18409732876026034794
14931854 50 18262246521418532950
15003188 105 18262519174685618954
15110567 62 18409729543263567994
15183329 4 18408603643741450857
15324115 91 16009022844121857010
15348495 7 11599715207998517597
17134984 74 18334295392119413242
19026451 147 18043241358802634938
19784866 240 18130795555072779961
20567600 247 18342173384241883367
20645477 70 18335699477068476200
20715895 44 8574714598224468518
21279426 13 18336537240942110621
21641784 216 16009018463619264045
21703447 108 18202556302631188152
221357 26 18409166601752024248
2215653 11 18408601470313789293
22849339 104 16950854712276482355
23516275 137 17415872238485149606
23522609 53 18125756497673323121
23559900 14 18261673774364861377
23569914 152 17616494426384500479
239999 70 18130790071074529356
25222932 49 18343297072399091230
2838139 119 10737285779230232715
2916195 48 9151181952430741341
3004659 81 18335137621983458216
33382 64 18272371983674278225
345986 75 17703505489485292514
3472631 163 15068917394528853662
34797466 226 17095806611452530221
3711267 37 12253275834179869151
4073 2 18263646324189840715
439807 62 18335421227459126511
444735 86 18260822683376701394
46194498 28 17967532423707819660
463206 1 18270114746258098094
465052 167 17917715699436754388
5372103 7 15865216756922221252
58260988 587 16486680481864964730
59755656 215 18333448759433412787
6025842 7 18265899232216585460
960060 61 18187372008628243708
9831232 110 18335698360656274975

> <PUBCHEM_SHAPE_MULTIPOLES>
482.83
17.12
3.28
1.11
17.61
1.11
0.08
10.15
-5.36
-2.8
0.12
-1.17
-0.01
0.1

> <PUBCHEM_SHAPE_SELFOVERLAP>
1040.449

> <PUBCHEM_SHAPE_VOLUME>
266.9

> <PUBCHEM_COORDINATE_TYPE>
2
5
10

$$$$
68517263
  -OEChem-05102415093D

 48 50  0     0  0  0  0  0  0999 V2000
   -1.0799    0.5844   -1.8649 O   0  0  0  0  0  0  0  0  0  0  0  0
   -3.5196   -3.4715   -0.0833 O   0  0  0  0  0  0  0  0  0  0  0  0
   -2.3239    1.7863   -0.3263 N   0  0  0  0  0  0  0  0  0  0  0  0
    0.0304    1.8784   -0.2819 N   0  0  0  0  0  0  0  0  0  0  0  0
    7.2875   -0.7411    0.3563 N   0  0  0  0  0  0  0  0  0  0  0  0
    6.8353   -2.0065    0.3759 N   0  0  0  0  0  0  0  0  0  0  0  0
   -3.6190    1.3632   -0.8438 C   0  0  0  0  0  0  0  0  0  0  0  0
   -2.3630    2.6916    0.8202 C   0  0  0  0  0  0  0  0  0  0  0  0
   -4.1286    0.1350   -0.1466 C   0  0  0  0  0  0  0  0  0  0  0  0
   -1.1064    1.3484   -0.8975 C   0  0  0  0  0  0  0  0  0  0  0  0
   -3.5805   -1.1131   -0.4421 C   0  0  0  0  0  0  0  0  0  0  0  0
   -2.3900    4.1411    0.3816 C   0  0  0  0  0  0  0  0  0  0  0  0
    1.3093    1.2795   -0.1649 C   0  0  0  0  0  0  0  0  0  0  0  0
   -5.1510    0.2425    0.7964 C   0  0  0  0  0  0  0  0  0  0  0  0
    3.8266    0.1000    0.0679 C   0  0  0  0  0  0  0  0  0  0  0  0
   -4.0548   -2.2539    0.2055 C   0  0  0  0  0  0  0  0  0  0  0  0
    1.5383    0.0127   -0.7022 C   0  0  0  0  0  0  0  0  0  0  0  0
    2.3389    1.9564    0.4890 C   0  0  0  0  0  0  0  0  0  0  0  0
   -5.6251   -0.8983    1.4439 C   0  0  0  0  0  0  0  0  0  0  0  0
    2.7969   -0.5770   -0.5858 C   0  0  0  0  0  0  0  0  0  0  0  0
    3.5975    1.3666    0.6054 C   0  0  0  0  0  0  0  0  0  0  0  0
   -5.0771   -2.1466    1.1483 C   0  0  0  0  0  0  0  0  0  0  0  0
    5.1222   -0.5074    0.1882 C   0  0  0  0  0  0  0  0  0  0  0  0
    6.3014    0.1948    0.2453 C   0  0  0  0  0  0  0  0  0  0  0  0
    5.5120   -1.8574    0.2729 C   0  0  0  0  0  0  0  0  0  0  0  0
   -2.4773   -3.5080   -1.0574 C   0  0  0  0  0  0  0  0  0  0  0  0
   -3.5221    1.1446   -1.9146 H   0  0  0  0  0  0  0  0  0  0  0  0
   -4.3306    2.1940   -0.7691 H   0  0  0  0  0  0  0  0  0  0  0  0
   -3.2578    2.4738    1.4143 H   0  0  0  0  0  0  0  0  0  0  0  0
   -1.5173    2.5093    1.4905 H   0  0  0  0  0  0  0  0  0  0  0  0
   -2.8006   -1.1490   -1.1924 H   0  0  0  0  0  0  0  0  0  0  0  0
   -2.4098    4.8011    1.2545 H   0  0  0  0  0  0  0  0  0  0  0  0
   -3.2782    4.3548   -0.2222 H   0  0  0  0  0  0  0  0  0  0  0  0
   -1.5141    4.4008   -0.2209 H   0  0  0  0  0  0  0  0  0  0  0  0
   -0.0474    2.7827    0.1717 H   0  0  0  0  0  0  0  0  0  0  0  0
   -5.5871    1.2085    1.0364 H   0  0  0  0  0  0  0  0  0  0  0  0
    0.7716   -0.5698   -1.1986 H   0  0  0  0  0  0  0  0  0  0  0  0
    2.1724    2.9426    0.9148 H   0  0  0  0  0  0  0  0  0  0  0  0
   -6.4210   -0.8148    2.1781 H   0  0  0  0  0  0  0  0  0  0  0  0
    2.9501   -1.5650   -1.0132 H   0  0  0  0  0  0  0  0  0  0  0  0
    4.3729    1.9167    1.1326 H   0  0  0  0  0  0  0  0  0  0  0  0
   -5.4506   -3.0317    1.6559 H   0  0  0  0  0  0  0  0  0  0  0  0
    6.5394    1.2491    0.2115 H   0  0  0  0  0  0  0  0  0  0  0  0
    4.8934   -2.7440    0.2672 H   0  0  0  0  0  0  0  0  0  0  0  0
    8.2859   -0.5872    0.4212 H   0  0  0  0  0  0  0  0  0  0  0  0
   -2.1665   -4.5530   -1.1582 H   0  0  0  0  0  0  0  0  0  0  0  0
   -1.5976   -2.9442   -0.7282 H   0  0  0  0  0  0  0  0  0  0  0  0
   -2.8343   -3.1853   -2.0413 H   0  0  0  0  0  0  0  0  0  0  0  0
  1 10  2  0  0  0  0
  2 16  1  0  0  0  0
  2 26  1  0  0  0  0
  3  7  1  0  0  0  0
  3  8  1  0  0  0  0
  3 10  1  0  0  0  0
  4 10  1  0  0  0  0
  4 13  1  0  0  0  0
  4 35  1  0  0  0  0
  5  6  1  0  0  0  0
  5 24  1  0  0  0  0
  5 45  1  0  0  0  0
  6 25  2  0  0  0  0
  7  9  1  0  0  0  0
  7 27  1  0  0  0  0
  7 28  1  0  0  0  0
  8 12  1  0  0  0  0
  8 29  1  0  0  0  0
  8 30  1  0  0  0  0
  9 11  2  0  0  0  0
  9 14  1  0  0  0  0
 11 16  1  0  0  0  0
 11 31  1  0  0  0  0
 12 32  1  0  0  0  0
 12 33  1  0  0  0  0
 12 34  1  0  0  0  0
 13 17  2  0  0  0  0
 13 18  1  0  0  0  0
 14 19  2  0  0  0  0
 14 36  1  0  0  0  0
 15 20  2  0  0  0  0
 15 21  1  0  0  0  0
 15 23  1  0  0  0  0
 16 22  2  0  0  0  0
 17 20  1  0  0  0  0
 17 37  1  0  0  0  0
 18 21  2  0  0  0  0
 18 38  1  0  0  0  0
 19 22  1  0  0  0  0
 19 39  1  0  0  0  0
 20 40  1  0  0  0  0
 21 41  1  0  0  0  0
 22 42  1  0  0  0  0
 23 24  2  0  0  0  0
 23 25  1  0  0  0  0
 24 43  1  0  0  0  0
 25 44  1  0  0  0  0
 26 46  1  0  0  0  0
 26 47  1  0  0  0  0
 26 48  1  0  0  0  0
M  END
> <PUBCHEM_COMPOUND_CID>
68517263

> <PUBCHEM_CONFORMER_RMSD>
1

> <PUBCHEM_CONFORMER_DIVERSEORDER>
1
24
39
132
60
84
27
114
119
101
129
54
111
6
92
80
64
115
131
148
69
144
57
162
122
103
40
160
14
152
96
4
85
100
149
99
17
19
62
143
83
113
157
159
47
116
156
120
63
51
87
134
15
158
3
153
12
140
59
150
121
133
71
31
81
91
88
75
66
135
49
25
74
32
33
28
137
145
105
67
93
61
82
5
128
141
98
35
138
48
26
52
125
104
2
58
77
44
46
127
41
11
7
70
21
112
65
16
9
136
90
50
45
34
73
8
22
126
154
37
110
151
42
18
38
53
76
147
56
97
130
95
102
13
89
123
43
94
20
86
155
29
68
30
109
108
107
117
161
146
106
36
72
55
78
142
23
118
10
124
139
79

> <PUBCHEM_MMFF94_PARTIAL_CHARGES>
37
1 -0.57
10 0.69
11 -0.15
13 0.12
14 -0.15
15 0.05
16 0.08
17 -0.15
18 -0.15
19 -0.15
2 -0.36
20 -0.15
21 -0.15
22 -0.15
23 -0.05
24 -0.3
25 0.14
26 0.28
3 -0.66
31 0.15
35 0.37
36 0.15
37 0.15
38 0.15
39 0.15
4 -0.55
40 0.15
41 0.15
42 0.15
43 0.15
44 0.15
45 0.27
5 0.3
6 -0.71
7 0.44
8 0.3
9 -0.14

> <PUBCHEM_EFFECTIVE_ROTOR_COUNT>
8

> <PUBCHEM_PHARMACOPHORE_FEATURES>
8
1 1 acceptor
1 2 acceptor
1 4 donor
1 5 donor
1 6 acceptor
5 5 6 23 24 25 rings
6 13 15 17 18 20 21 rings
6 9 11 14 16 19 22 rings

> <PUBCHEM_HEAVY_ATOM_COUNT>
26

> <PUBCHEM_ATOM_DEF_STEREO_COUNT>
0

> <PUBCHEM_ATOM_UDEF_STEREO_COUNT>
0

> <PUBCHEM_BOND_DEF_STEREO_COUNT>
0

> <PUBCHEM_BOND_UDEF_STEREO_COUNT>
0

> <PUBCHEM_ISOTOPIC_ATOM_COUNT>
0

> <PUBCHEM_COMPONENT_COUNT>
1

> <PUBCHEM_CACTVS_TAUTO_COUNT>
2

> <PUBCHEM_CONFORMER_ID>
04157D8F00000001

> <PUBCHEM_MMFF94_ENERGY>
75.8542

> <PUBCHEM_FEATURE_SELFOVERLAP>
40.597

> <PUBCHEM_SHAPE_FINGERPRINT>
11135609 99 18265327314999392214
11524674 6 17775845709746851903
117089 54 17753063962095805595
12107183 9 18341059566463075801
12633257 1 18059302057971167279
12760667 363 18411415129359552431
14251751 18 18409731776809630770
14341114 176 18411701002082587296
14420673 8 18408326583738289659
14844126 61 18410294701325558097
14950920 106 17775007946305201593
15537594 2 17749387044608104507
16110190 28 18340772627702622711
17780758 139 18413672400829996385
17913733 40 16558750079508524134
1813 80 17459186447009941197
21033648 29 15553630460236420377
21403212 168 18341342107229758577
229767 44 18343024436344230071
23424784 1240 18270689654149908750
23522609 53 18046662029217570380
23559900 14 18337662109513859833
2838139 119 9655578495971847562
392239 28 18342746229884259851
4073 2 18339642231550414640
4409770 3 18335696110463053821
474113 269 18194399116966528143
484985 159 18408038494991406419
5104073 3 18130787922794257824
531348 171 17242441720991197268
5372103 7 12894249296948845819
54583773 228 18261964033715257140
56633871 153 18267311018232024707
56638632 33 17914617404809020225
57307002 103 18131351956071331088
636775 8 18267593412917338462
6431902 208 18335699463872448258
7495541 125 18410009949389390844
8863177 126 18340483456682204576
999808 66 18040445390573572419

> <PUBCHEM_SHAPE_MULTIPOLES>
503.41
16.65
3.91
1.1
21.87
0.2
-0.1
-10.69
5.29
-4.7
0.12
-1.07
-0.09
0.15

> <PUBCHEM_SHAPE_SELFOVERLAP>
1079.147

> <PUBCHEM_SHAPE_VOLUME>
279.2

> <PUBCHEM_COORDINATE_TYPE>
2
5
10

$$$$
68566291
  -OEChem-05102415093D

 49 52  0     0  0  0  0  0  0999 V2000
    0.7222    2.5966    0.8647 O   0  0  0  0  0  0  0  0  0  0  0  0
    2.4410   -3.9950    0.1709 O   0  0  0  0  0  0  0  0  0  0  0  0
    2.5172    1.6803   -0.2630 N   0  0  0  0  0  0  0  0  0  0  0  0
    0.3668    0.7487   -0.5115 N   0  0  0  0  0  0  0  0  0  0  0  0
   -7.1151   -1.1125    0.1881 N   0  0  0  0  0  0  0  0  0  0  0  0
   -7.4212    0.1763    0.4149 N   0  0  0  0  0  0  0  0  0  0  0  0
    3.4317    2.6618    0.2940 C   0  0  0  0  0  0  0  0  0  0  0  0
    3.1690    4.1332    0.1596 C   0  0  0  0  0  0  0  0  0  0  0  0
    4.3034    3.5016   -0.5927 C   0  0  0  0  0  0  0  0  0  0  0  0
    3.1030    0.6727   -1.1469 C   0  0  0  0  0  0  0  0  0  0  0  0
    1.1497    1.7348    0.0933 C   0  0  0  0  0  0  0  0  0  0  0  0
    3.5377   -0.5511   -0.3936 C   0  0  0  0  0  0  0  0  0  0  0  0
    2.7784   -1.7191   -0.4621 C   0  0  0  0  0  0  0  0  0  0  0  0
    4.7010   -0.5194    0.3756 C   0  0  0  0  0  0  0  0  0  0  0  0
   -1.0263    0.5348   -0.3628 C   0  0  0  0  0  0  0  0  0  0  0  0
    3.1824   -2.8556    0.2383 C   0  0  0  0  0  0  0  0  0  0  0  0
    5.1049   -1.6559    1.0760 C   0  0  0  0  0  0  0  0  0  0  0  0
    4.3456   -2.8240    1.0076 C   0  0  0  0  0  0  0  0  0  0  0  0
   -1.7750    1.3666    0.4699 C   0  0  0  0  0  0  0  0  0  0  0  0
   -1.6483   -0.5085   -1.0484 C   0  0  0  0  0  0  0  0  0  0  0  0
   -3.7679    0.1116   -0.0688 C   0  0  0  0  0  0  0  0  0  0  0  0
   -3.1458    1.1550    0.6168 C   0  0  0  0  0  0  0  0  0  0  0  0
   -3.0192   -0.7202   -0.9013 C   0  0  0  0  0  0  0  0  0  0  0  0
   -5.1791   -0.1066    0.0830 C   0  0  0  0  0  0  0  0  0  0  0  0
    1.2636   -3.9566   -0.6343 C   0  0  0  0  0  0  0  0  0  0  0  0
   -5.7851   -1.3352   -0.0168 C   0  0  0  0  0  0  0  0  0  0  0  0
   -6.2346    0.7859    0.3494 C   0  0  0  0  0  0  0  0  0  0  0  0
    3.8544    2.3360    1.2392 H   0  0  0  0  0  0  0  0  0  0  0  0
    2.3185    4.4689   -0.4209 H   0  0  0  0  0  0  0  0  0  0  0  0
    3.4139    4.7683    1.0021 H   0  0  0  0  0  0  0  0  0  0  0  0
    5.3115    3.7098   -0.2554 H   0  0  0  0  0  0  0  0  0  0  0  0
    4.1983    3.4311   -1.6683 H   0  0  0  0  0  0  0  0  0  0  0  0
    3.9827    1.0976   -1.6459 H   0  0  0  0  0  0  0  0  0  0  0  0
    2.4289    0.4286   -1.9736 H   0  0  0  0  0  0  0  0  0  0  0  0
    0.8033    0.0893   -1.1402 H   0  0  0  0  0  0  0  0  0  0  0  0
    1.8943   -1.7035   -1.0879 H   0  0  0  0  0  0  0  0  0  0  0  0
    5.3090    0.3791    0.4321 H   0  0  0  0  0  0  0  0  0  0  0  0
    6.0118   -1.6321    1.6731 H   0  0  0  0  0  0  0  0  0  0  0  0
    4.6656   -3.7063    1.5551 H   0  0  0  0  0  0  0  0  0  0  0  0
   -1.3726    2.1931    1.0369 H   0  0  0  0  0  0  0  0  0  0  0  0
   -1.0765   -1.1629   -1.7015 H   0  0  0  0  0  0  0  0  0  0  0  0
   -3.7067    1.8130    1.2763 H   0  0  0  0  0  0  0  0  0  0  0  0
   -3.4732   -1.5346   -1.4601 H   0  0  0  0  0  0  0  0  0  0  0  0
    0.7957   -4.9444   -0.5688 H   0  0  0  0  0  0  0  0  0  0  0  0
    1.5024   -3.7866   -1.6896 H   0  0  0  0  0  0  0  0  0  0  0  0
    0.5358   -3.2336   -0.2502 H   0  0  0  0  0  0  0  0  0  0  0  0
   -5.4127   -2.3333   -0.2027 H   0  0  0  0  0  0  0  0  0  0  0  0
   -6.1973    1.8561    0.4972 H   0  0  0  0  0  0  0  0  0  0  0  0
   -7.8661   -1.7914    0.1887 H   0  0  0  0  0  0  0  0  0  0  0  0
  1 11  2  0  0  0  0
  2 16  1  0  0  0  0
  2 25  1  0  0  0  0
  3  7  1  0  0  0  0
  3 10  1  0  0  0  0
  3 11  1  0  0  0  0
  4 11  1  0  0  0  0
  4 15  1  0  0  0  0
  4 35  1  0  0  0  0
  5  6  1  0  0  0  0
  5 26  1  0  0  0  0
  5 49  1  0  0  0  0
  6 27  2  0  0  0  0
  7  8  1  0  0  0  0
  7  9  1  0  0  0  0
  7 28  1  0  0  0  0
  8  9  1  0  0  0  0
  8 29  1  0  0  0  0
  8 30  1  0  0  0  0
  9 31  1  0  0  0  0
  9 32  1  0  0  0  0
 10 12  1  0  0  0  0
 10 33  1  0  0  0  0
 10 34  1  0  0  0  0
 12 13  2  0  0  0  0
 12 14  1  0  0  0  0
 13 16  1  0  0  0  0
 13 36  1  0  0  0  0
 14 17  2  0  0  0  0
 14 37  1  0  0  0  0
 15 19  2  0  0  0  0
 15 20  1  0  0  0  0
 16 18  2  0  0  0  0
 17 18  1  0  0  0  0
 17 38  1  0  0  0  0
 18 39  1  0  0  0  0
 19 22  1  0  0  0  0
 19 40  1  0  0  0  0
 20 23  2  0  0  0  0
 20 41  1  0  0  0  0
 21 22  2  0  0  0  0
 21 23  1  0  0  0  0
 21 24  1  0  0  0  0
 22 42  1  0  0  0  0
 23 43  1  0  0  0  0
 24 26  2  0  0  0  0
 24 27  1  0  0  0  0
 25 44  1  0  0  0  0
 25 45  1  0  0  0  0
 25 46  1  0  0  0  0
 26 47  1  0  0  0  0
 27 48  1  0  0  0  0
M  END
> <PUBCHEM_COMPOUND_CID>
68566291

> <PUBCHEM_CONFORMER_RMSD>
1

> <PUBCHEM_CONFORMER_DIVERSEORDER>
1
30
90
135
125
15
112
42
87
119
97
104
114
23
31
139
106
43
64
81
66
124
55
120
76
136
33
102
24
47
85
28
86
77
63
137
84
132
110
51
80
138
44
60
45
56
101
96
126
108
57
134
88
82
75
129
36
35
72
83
46
21
14
61
52
79
73
58
34
91
16
29
116
128
70
121
111
131
8
4
62
18
130
105
17
48
39
95
26
71
109
32
117
41
6
103
133
118
74
122
123
65
67
7
115
37
19
127
94
99
54
107
100
38
78
11
49
59
92
5
93
25
3
69
40
10
12
53
9
113
50
68
13
98
89
20
27
2
22

> <PUBCHEM_MMFF94_PARTIAL_CHARGES>
44
1 -0.57
10 0.44
11 0.69
12 -0.14
13 -0.15
14 -0.15
15 0.12
16 0.08
17 -0.15
18 -0.15
19 -0.15
2 -0.36
20 -0.15
21 0.05
22 -0.15
23 -0.15
24 -0.05
25 0.28
26 -0.3
27 0.14
28 0.1
29 0.1
3 -0.51
30 0.1
31 0.1
32 0.1
35 0.37
36 0.15
37 0.15
38 0.15
39 0.15
4 -0.55
40 0.15
41 0.15
42 0.15
43 0.15
47 0.15
48 0.15
49 0.27
5 0.3
6 -0.71
7 0.05
8 -0.2
9 -0.2

> <PUBCHEM_EFFECTIVE_ROTOR_COUNT>
8.6

> <PUBCHEM_PHARMACOPHORE_FEATURES>
8
1 1 acceptor
1 2 acceptor
1 4 donor
1 5 donor
1 6 acceptor
5 5 6 24 26 27 rings
6 12 13 14 16 17 18 rings
6 15 19 20 21 22 23 rings

> <PUBCHEM_HEAVY_ATOM_COUNT>
27

> <PUBCHEM_ATOM_DEF_STEREO_COUNT>
0

> <PUBCHEM_ATOM_UDEF_STEREO_COUNT>
0

> <PUBCHEM_BOND_DEF_STEREO_COUNT>
0

> <PUBCHEM_BOND_UDEF_STEREO_COUNT>
0

> <PUBCHEM_ISOTOPIC_ATOM_COUNT>
0

> <PUBCHEM_COMPONENT_COUNT>
1

> <PUBCHEM_CACTVS_TAUTO_COUNT>
2

> <PUBCHEM_CONFORMER_ID>
04163D1300000001

> <PUBCHEM_MMFF94_ENERGY>
82.0273

> <PUBCHEM_FEATURE_SELFOVERLAP>
40.597

> <PUBCHEM_SHAPE_FINGERPRINT>
10411042 1 18122344580486002214
10816530 23 17904200674043398160
1100329 8 18266733757800279784
11014199 57 17762904260557029806
12107183 9 18053392002831691473
12553582 1 18268145354167238966
12616971 3 18131062753873338501
12730499 353 18264215875107439264
12788726 201 17346333612854113041
13533116 47 18408325496984592889
1361 2 18410012122205155474
13782708 43 17894347766148437443
13785724 45 17983870973022445967
13955234 65 18338229470609450704
14347332 77 18409165472861726337
14565420 104 18056470893071963616
15183329 4 18201446870150716305
15250474 111 18129369549069736991
15483637 11 18049161369244494059
15927050 60 18125159596124187646
16992610 120 18265902535974980908
16993427 108 17606098604036867674
17492 89 17978507533986053978
17844677 252 18410016524884302021
17857418 61 18410856538761214531
19319366 153 18198341951733832564
19427546 62 18049445039318543684
21049683 271 18187652393068649908
21197605 99 18265057006019851027
21315759 148 18041569160677575225
21344244 78 18201428160788073920
21421861 104 18413668019884278404
23081809 10 17917432060371643029
23559900 14 18261677073005220345
239999 70 18202293502240020582
25147074 1 17988350589963457279
3004659 81 18202010940199253381
3178227 256 18408038529419710098
3421961 26 18409164402976824904
345986 75 18059008372059439433
397830 11 11743551150887296637
4073 2 18118690048373389705
46194498 28 17603305951353733012
5104073 3 18272097114990343441
5309563 4 18193556662623979546
57527306 92 15410316855008152202
6025842 7 18337675312406487860

> <PUBCHEM_SHAPE_MULTIPOLES>
523.98
15.49
4.7
0.94
29.01
0.29
-0.04
2.75
2.82
-9.42
0.22
-0.43
0.12
-1.26

> <PUBCHEM_SHAPE_SELFOVERLAP>
1133.583

> <PUBCHEM_SHAPE_VOLUME>
288.9

> <PUBCHEM_COORDINATE_TYPE>
2
5
10

$$$$
68560451
  -OEChem-05102415103D

 64 66  0     1  0  0  0  0  0999 V2000
   -1.2365   -2.0921    1.3505 O   0  0  0  0  0  0  0  0  0  0  0  0
   -5.4356   -1.3610   -2.7323 O   0  0  0  0  0  0  0  0  0  0  0  0
    1.9362    1.7221    1.3617 N   0  0  3  0  0  0  0  0  0  0  0  0
    1.6023    4.5609   -1.0089 N   0  0  0  0  0  0  0  0  0  0  0  0
   -0.2492   -0.0416    0.8666 N   0  0  0  0  0  0  0  0  0  0  0  0
   -2.5250   -0.1723    1.4639 N   0  0  0  0  0  0  0  0  0  0  0  0
    7.1369   -1.5697   -0.8874 N   0  0  0  0  0  0  0  0  0  0  0  0
    6.9194   -2.8784   -0.6723 N   0  0  0  0  0  0  0  0  0  0  0  0
    2.3461    2.9034    0.6314 C   0  0  0  0  0  0  0  0  0  0  0  0
    2.1509    0.4360    0.8170 C   0  0  0  0  0  0  0  0  0  0  0  0
    1.2167    3.3557   -0.2855 C   0  0  0  0  0  0  0  0  0  0  0  0
    1.0825   -0.4273    0.5740 C   0  0  0  0  0  0  0  0  0  0  0  0
    3.4536    0.0339    0.5220 C   0  0  0  0  0  0  0  0  0  0  0  0
    3.6879   -1.2314   -0.0163 C   0  0  0  0  0  0  0  0  0  0  0  0
    1.3109    1.8716    2.6592 C   0  0  0  0  0  0  0  0  0  0  0  0
    1.3169   -1.6926    0.0359 C   0  0  0  0  0  0  0  0  0  0  0  0
    2.6195   -2.0947   -0.2594 C   0  0  0  0  0  0  0  0  0  0  0  0
    5.0287   -1.6458   -0.3207 C   0  0  0  0  0  0  0  0  0  0  0  0
   -3.7577   -0.8618    1.8390 C   0  0  0  0  0  0  0  0  0  0  0  0
   -1.3133   -0.8665    1.2400 C   0  0  0  0  0  0  0  0  0  0  0  0
    0.4175    5.2838   -1.4753 C   0  0  0  0  0  0  0  0  0  0  0  0
    2.4713    4.2286   -2.1394 C   0  0  0  0  0  0  0  0  0  0  0  0
   -4.8379   -0.6800    0.8122 C   0  0  0  0  0  0  0  0  0  0  0  0
   -2.6235    1.2761    1.3351 C   0  0  0  0  0  0  0  0  0  0  0  0
    6.0363   -0.7885   -0.6904 C   0  0  0  0  0  0  0  0  0  0  0  0
    5.6299   -2.9187   -0.3265 C   0  0  0  0  0  0  0  0  0  0  0  0
   -4.6324   -1.1091   -0.4990 C   0  0  0  0  0  0  0  0  0  0  0  0
   -6.0466   -0.0818    1.1689 C   0  0  0  0  0  0  0  0  0  0  0  0
   -5.6355   -0.9401   -1.4535 C   0  0  0  0  0  0  0  0  0  0  0  0
   -7.0495    0.0874    0.2143 C   0  0  0  0  0  0  0  0  0  0  0  0
   -6.8440   -0.3418   -1.0969 C   0  0  0  0  0  0  0  0  0  0  0  0
   -4.1768   -1.9643   -3.0278 C   0  0  0  0  0  0  0  0  0  0  0  0
    2.5891    3.7075    1.3386 H   0  0  0  0  0  0  0  0  0  0  0  0
    3.2674    2.7121    0.0719 H   0  0  0  0  0  0  0  0  0  0  0  0
    0.9081    2.5535   -0.9692 H   0  0  0  0  0  0  0  0  0  0  0  0
    0.3430    3.5640    0.3472 H   0  0  0  0  0  0  0  0  0  0  0  0
    4.2792    0.7070    0.7426 H   0  0  0  0  0  0  0  0  0  0  0  0
    0.3617    2.4094    2.5755 H   0  0  0  0  0  0  0  0  0  0  0  0
    1.9636    2.4487    3.3236 H   0  0  0  0  0  0  0  0  0  0  0  0
    1.1241    0.9115    3.1530 H   0  0  0  0  0  0  0  0  0  0  0  0
    0.5130   -2.3795   -0.2078 H   0  0  0  0  0  0  0  0  0  0  0  0
    2.7742   -3.0802   -0.6919 H   0  0  0  0  0  0  0  0  0  0  0  0
   -0.3594    0.9558    1.0042 H   0  0  0  0  0  0  0  0  0  0  0  0
   -4.0628   -0.4691    2.8166 H   0  0  0  0  0  0  0  0  0  0  0  0
   -3.5715   -1.9331    1.9743 H   0  0  0  0  0  0  0  0  0  0  0  0
    0.7074    6.2015   -1.9992 H   0  0  0  0  0  0  0  0  0  0  0  0
   -0.1952    4.6779   -2.1528 H   0  0  0  0  0  0  0  0  0  0  0  0
   -0.2049    5.5933   -0.6282 H   0  0  0  0  0  0  0  0  0  0  0  0
    1.9846    3.5527   -2.8523 H   0  0  0  0  0  0  0  0  0  0  0  0
    2.7563    5.1395   -2.6788 H   0  0  0  0  0  0  0  0  0  0  0  0
    3.4086    3.7691   -1.8120 H   0  0  0  0  0  0  0  0  0  0  0  0
   -2.3440    1.5721    0.3194 H   0  0  0  0  0  0  0  0  0  0  0  0
   -1.9475    1.7463    2.0551 H   0  0  0  0  0  0  0  0  0  0  0  0
   -3.6343    1.6343    1.5469 H   0  0  0  0  0  0  0  0  0  0  0  0
    6.0825    0.2816   -0.8394 H   0  0  0  0  0  0  0  0  0  0  0  0
    5.1899   -3.8779   -0.0920 H   0  0  0  0  0  0  0  0  0  0  0  0
   -3.6780   -1.5744   -0.7214 H   0  0  0  0  0  0  0  0  0  0  0  0
   -6.2209    0.2578    2.1863 H   0  0  0  0  0  0  0  0  0  0  0  0
    8.0641   -1.2775   -1.1696 H   0  0  0  0  0  0  0  0  0  0  0  0
   -7.9905    0.5534    0.4919 H   0  0  0  0  0  0  0  0  0  0  0  0
   -7.6291   -0.2076   -1.8360 H   0  0  0  0  0  0  0  0  0  0  0  0
   -4.1898   -2.2352   -4.0887 H   0  0  0  0  0  0  0  0  0  0  0  0
   -4.0325   -2.8919   -2.4635 H   0  0  0  0  0  0  0  0  0  0  0  0
   -3.3497   -1.2597   -2.8887 H   0  0  0  0  0  0  0  0  0  0  0  0
  1 20  2  0  0  0  0
  2 29  1  0  0  0  0
  2 32  1  0  0  0  0
  3  9  1  0  0  0  0
  3 10  1  0  0  0  0
  3 15  1  0  0  0  0
  4 11  1  0  0  0  0
  4 21  1  0  0  0  0
  4 22  1  0  0  0  0
  5 12  1  0  0  0  0
  5 20  1  0  0  0  0
  5 43  1  0  0  0  0
  6 19  1  0  0  0  0
  6 20  1  0  0  0  0
  6 24  1  0  0  0  0
  7  8  1  0  0  0  0
  7 25  1  0  0  0  0
  7 59  1  0  0  0  0
  8 26  2  0  0  0  0
  9 11  1  0  0  0  0
  9 33  1  0  0  0  0
  9 34  1  0  0  0  0
 10 12  2  0  0  0  0
 10 13  1  0  0  0  0
 11 35  1  0  0  0  0
 11 36  1  0  0  0  0
 12 16  1  0  0  0  0
 13 14  2  0  0  0  0
 13 37  1  0  0  0  0
 14 17  1  0  0  0  0
 14 18  1  0  0  0  0
 15 38  1  0  0  0  0
 15 39  1  0  0  0  0
 15 40  1  0  0  0  0
 16 17  2  0  0  0  0
 16 41  1  0  0  0  0
 17 42  1  0  0  0  0
 18 25  2  0  0  0  0
 18 26  1  0  0  0  0
 19 23  1  0  0  0  0
 19 44  1  0  0  0  0
 19 45  1  0  0  0  0
 21 46  1  0  0  0  0
 21 47  1  0  0  0  0
 21 48  1  0  0  0  0
 22 49  1  0  0  0  0
 22 50  1  0  0  0  0
 22 51  1  0  0  0  0
 23 27  2  0  0  0  0
 23 28  1  0  0  0  0
 24 52  1  0  0  0  0
 24 53  1  0  0  0  0
 24 54  1  0  0  0  0
 25 55  1  0  0  0  0
 26 56  1  0  0  0  0
 27 29  1  0  0  0  0
 27 57  1  0  0  0  0
 28 30  2  0  0  0  0
 28 58  1  0  0  0  0
 29 31  2  0  0  0  0
 30 31  1  0  0  0  0
 30 60  1  0  0  0  0
 31 61  1  0  0  0  0
 32 62  1  0  0  0  0
 32 63  1  0  0  0  0
 32 64  1  0  0  0  0
M  END
> <PUBCHEM_COMPOUND_CID>
68560451

> <PUBCHEM_CONFORMER_RMSD>
1.2

> <PUBCHEM_CONFORMER_DIVERSEORDER>
21
64
95
1
76
174
83
67
20
192
40
197
147
139
152
50
182
18
89
183
144
19
33
61
134
116
74
37
96
101
43
30
91
153
137
122
193
146
35
78
23
118
136
46
52
179
194
172
75
151
119
105
124
145
27
22
34
108
41
59
133
176
17
164
121
63
138
94
141
180
123
100
56
129
28
38
14
127
143
70
191
65
25
128
140
66
158
6
85
185
42
135
187
115
104
39
48
53
99
47
11
150
4
160
161
13
86
97
111
29
2
8
92
32
93
155
149
165
7
171
113
181
130
90
71
58
178
167
62
79
154
49
157
81
148
60
190
162
31
73
98
26
82
110
84
51
188
106
107
12
142
177
3
120
117
109
55
173
131
198
36
168
195
88
54
103
169
45
72
24
15
196
170
163
9
69
80
132
68
125
114
159
57
189
87
102
5
77
184
16
175
126
156
186
112
166
10
44

> <PUBCHEM_MMFF94_PARTIAL_CHARGES>
43
1 -0.57
10 0.1
11 0.27
12 0.12
13 -0.15
14 0.05
15 0.37
16 -0.15
17 -0.15
18 -0.05
19 0.44
2 -0.36
20 0.69
21 0.27
22 0.27
23 -0.14
24 0.3
25 -0.3
26 0.14
27 -0.15
28 -0.15
29 0.08
3 -0.84
30 -0.15
31 -0.15
32 0.28
37 0.15
4 -0.81
41 0.15
42 0.15
43 0.37
5 -0.55
55 0.15
56 0.15
57 0.15
58 0.15
59 0.27
6 -0.66
60 0.15
61 0.15
7 0.3
8 -0.71
9 0.37

> <PUBCHEM_EFFECTIVE_ROTOR_COUNT>
11

> <PUBCHEM_PHARMACOPHORE_FEATURES>
10
1 1 acceptor
1 2 acceptor
1 3 cation
1 4 cation
1 5 donor
1 7 donor
1 8 acceptor
5 7 8 18 25 26 rings
6 10 12 13 14 16 17 rings
6 23 27 28 29 30 31 rings

> <PUBCHEM_HEAVY_ATOM_COUNT>
32

> <PUBCHEM_ATOM_DEF_STEREO_COUNT>
0

> <PUBCHEM_ATOM_UDEF_STEREO_COUNT>
0

> <PUBCHEM_BOND_DEF_STEREO_COUNT>
0

> <PUBCHEM_BOND_UDEF_STEREO_COUNT>
0

> <PUBCHEM_ISOTOPIC_ATOM_COUNT>
0

> <PUBCHEM_COMPONENT_COUNT>
1

> <PUBCHEM_CACTVS_TAUTO_COUNT>
2

> <PUBCHEM_CONFORMER_ID>
0416264300000015

> <PUBCHEM_MMFF94_ENERGY>
115.9861

> <PUBCHEM_FEATURE_SELFOVERLAP>
50.746

> <PUBCHEM_SHAPE_FINGERPRINT>
10930396 42 18264468682311450482
11062273 29 18194699270149056284
11135609 99 16558743521167504102
11386260 185 18261666069568345685
11720765 8 18336836380850816972
12166972 35 18343586239287442104
12660671 118 17823404063453044032
13540713 4 17897458413028328019
14068700 675 17775286032405081194
14117953 113 17417811695939832085
14289585 56 18338222778812585351
14347329 18 16081357523885477911
14556957 393 17898320258952272788
15021287 119 18413114940013285473
15082195 135 18049152564877171487
15183329 4 18041562446847756107
15198563 99 18117290159908484564
15320294 125 17131824366247934863
15419008 47 17675926486765827013
15439362 3 18191876836532455848
16628084 112 18123188992046448974
16988056 13 18334574689452986644
19309040 13 18122639511711153285
20028762 73 17203325594275037446
21223535 225 18189600680386262957
21424621 283 13479144505680110214
21583282 1 18268435801483891636
21641784 216 18118712958124754732
23559900 14 18338801225023743955
23576562 1 18264212572314609863
249057 3 17917712366979852563
3004659 81 17917702505545510939
376196 1 17320140140192307344
397830 11 15266757980566080874
4066623 53 18040719156200499244
50742298 180 12892492453266724941
5081480 168 18186802508390877557
5219985 9 18342740672565896122
58902169 19 18272087210589952495
5969126 39 18337955567844127324
6086070 43 18113611322254930915

> <PUBCHEM_SHAPE_MULTIPOLES>
616.92
17.44
4.94
2.26
8.88
9.14
0.77
-15.18
6.77
-7.72
3.28
2.8
0.46
-0.95

> <PUBCHEM_SHAPE_SELFOVERLAP>
1300.907

> <PUBCHEM_SHAPE_VOLUME>
350.2

> <PUBCHEM_COORDINATE_TYPE>
2
5
10

$$$$
68565470
  -OEChem-05102415103D

 63 65  0     0  0  0  0  0  0999 V2000
    2.2193    1.8642   -0.8480 O   0  0  0  0  0  0  0  0  0  0  0  0
   -1.7095   -1.0859   -2.0520 O   0  0  0  0  0  0  0  0  0  0  0  0
   -4.5633   -3.2490    1.5168 O   0  0  0  0  0  0  0  0  0  0  0  0
   -2.5577    0.9186   -1.2638 N   0  0  0  0  0  0  0  0  0  0  0  0
   -0.2305    0.5519   -1.3149 N   0  0  0  0  0  0  0  0  0  0  0  0
    2.3371    4.7669    1.4164 N   0  0  0  0  0  0  0  0  0  0  0  0
    6.3216   -2.8338    1.0441 N   0  0  0  0  0  0  0  0  0  0  0  0
    5.9821   -3.9563    0.3877 N   0  0  0  0  0  0  0  0  0  0  0  0
   -3.9546    0.5681   -1.4868 C   0  0  0  0  0  0  0  0  0  0  0  0
   -2.3181    2.2447   -0.6982 C   0  0  0  0  0  0  0  0  0  0  0  0
    0.9374   -0.1615   -0.9473 C   0  0  0  0  0  0  0  0  0  0  0  0
   -4.5776   -0.0579   -0.2726 C   0  0  0  0  0  0  0  0  0  0  0  0
    2.1392    0.5094   -0.7209 C   0  0  0  0  0  0  0  0  0  0  0  0
   -1.5009    0.0317   -1.5750 C   0  0  0  0  0  0  0  0  0  0  0  0
    3.2201   -1.5937   -0.2253 C   0  0  0  0  0  0  0  0  0  0  0  0
    1.9794    3.9830    0.2435 C   0  0  0  0  0  0  0  0  0  0  0  0
    2.6093    2.6009    0.3090 C   0  0  0  0  0  0  0  0  0  0  0  0
    3.2804   -0.2067   -0.3598 C   0  0  0  0  0  0  0  0  0  0  0  0
    0.8770   -1.5485   -0.8126 C   0  0  0  0  0  0  0  0  0  0  0  0
    2.0184   -2.2647   -0.4518 C   0  0  0  0  0  0  0  0  0  0  0  0
   -2.1557    3.2892   -1.7832 C   0  0  0  0  0  0  0  0  0  0  0  0
   -4.2783   -1.3786    0.0617 C   0  0  0  0  0  0  0  0  0  0  0  0
   -5.4557    0.6805    0.5209 C   0  0  0  0  0  0  0  0  0  0  0  0
    4.3952   -2.3313    0.1458 C   0  0  0  0  0  0  0  0  0  0  0  0
   -4.8571   -1.9609    1.1894 C   0  0  0  0  0  0  0  0  0  0  0  0
   -6.0346    0.0981    1.6484 C   0  0  0  0  0  0  0  0  0  0  0  0
   -5.7353   -1.2226    1.9827 C   0  0  0  0  0  0  0  0  0  0  0  0
    3.6888    5.3151    1.2809 C   0  0  0  0  0  0  0  0  0  0  0  0
    1.3724    5.8482    1.6309 C   0  0  0  0  0  0  0  0  0  0  0  0
    5.4047   -1.8303    0.9310 C   0  0  0  0  0  0  0  0  0  0  0  0
    4.8044   -3.6432   -0.1591 C   0  0  0  0  0  0  0  0  0  0  0  0
   -3.6577   -3.9455    0.6619 C   0  0  0  0  0  0  0  0  0  0  0  0
   -4.0162   -0.1434   -2.3197 H   0  0  0  0  0  0  0  0  0  0  0  0
   -4.5069    1.4586   -1.8096 H   0  0  0  0  0  0  0  0  0  0  0  0
   -1.4435    2.2362   -0.0404 H   0  0  0  0  0  0  0  0  0  0  0  0
   -3.1636    2.5149   -0.0555 H   0  0  0  0  0  0  0  0  0  0  0  0
   -0.1039    1.5580   -1.3523 H   0  0  0  0  0  0  0  0  0  0  0  0
    2.2396    4.4884   -0.6962 H   0  0  0  0  0  0  0  0  0  0  0  0
    0.8916    3.8330    0.1975 H   0  0  0  0  0  0  0  0  0  0  0  0
    2.2817    2.0867    1.2228 H   0  0  0  0  0  0  0  0  0  0  0  0
    3.7025    2.6594    0.3152 H   0  0  0  0  0  0  0  0  0  0  0  0
    4.2140    0.3308   -0.2106 H   0  0  0  0  0  0  0  0  0  0  0  0
   -0.0313   -2.1230   -0.9458 H   0  0  0  0  0  0  0  0  0  0  0  0
    1.9425   -3.3439   -0.3420 H   0  0  0  0  0  0  0  0  0  0  0  0
   -1.3220    3.0546   -2.4522 H   0  0  0  0  0  0  0  0  0  0  0  0
   -3.0586    3.3649   -2.3978 H   0  0  0  0  0  0  0  0  0  0  0  0
   -1.9674    4.2713   -1.3382 H   0  0  0  0  0  0  0  0  0  0  0  0
   -3.6041   -1.9172   -0.5926 H   0  0  0  0  0  0  0  0  0  0  0  0
   -5.6976    1.7104    0.2724 H   0  0  0  0  0  0  0  0  0  0  0  0
   -6.7183    0.6730    2.2662 H   0  0  0  0  0  0  0  0  0  0  0  0
   -6.1890   -1.6706    2.8625 H   0  0  0  0  0  0  0  0  0  0  0  0
    3.7863    5.9661    0.4043 H   0  0  0  0  0  0  0  0  0  0  0  0
    3.9512    5.9017    2.1691 H   0  0  0  0  0  0  0  0  0  0  0  0
    4.4412    4.5238    1.2103 H   0  0  0  0  0  0  0  0  0  0  0  0
    1.6289    6.4209    2.5292 H   0  0  0  0  0  0  0  0  0  0  0  0
    1.3310    6.5384    0.7804 H   0  0  0  0  0  0  0  0  0  0  0  0
    0.3682    5.4422    1.7971 H   0  0  0  0  0  0  0  0  0  0  0  0
    5.5611   -0.8792    1.4211 H   0  0  0  0  0  0  0  0  0  0  0  0
    4.3009   -4.3891   -0.7581 H   0  0  0  0  0  0  0  0  0  0  0  0
    7.1966   -2.8217    1.5532 H   0  0  0  0  0  0  0  0  0  0  0  0
   -3.5351   -4.9526    1.0738 H   0  0  0  0  0  0  0  0  0  0  0  0
   -2.6663   -3.4795    0.6591 H   0  0  0  0  0  0  0  0  0  0  0  0
   -4.0658   -4.0616   -0.3479 H   0  0  0  0  0  0  0  0  0  0  0  0
  1 13  1  0  0  0  0
  1 17  1  0  0  0  0
  2 14  2  0  0  0  0
  3 25  1  0  0  0  0
  3 32  1  0  0  0  0
  4  9  1  0  0  0  0
  4 10  1  0  0  0  0
  4 14  1  0  0  0  0
  5 11  1  0  0  0  0
  5 14  1  0  0  0  0
  5 37  1  0  0  0  0
  6 16  1  0  0  0  0
  6 28  1  0  0  0  0
  6 29  1  0  0  0  0
  7  8  1  0  0  0  0
  7 30  1  0  0  0  0
  7 60  1  0  0  0  0
  8 31  2  0  0  0  0
  9 12  1  0  0  0  0
  9 33  1  0  0  0  0
  9 34  1  0  0  0  0
 10 21  1  0  0  0  0
 10 35  1  0  0  0  0
 10 36  1  0  0  0  0
 11 13  2  0  0  0  0
 11 19  1  0  0  0  0
 12 22  2  0  0  0  0
 12 23  1  0  0  0  0
 13 18  1  0  0  0  0
 15 18  2  0  0  0  0
 15 20  1  0  0  0  0
 15 24  1  0  0  0  0
 16 17  1  0  0  0  0
 16 38  1  0  0  0  0
 16 39  1  0  0  0  0
 17 40  1  0  0  0  0
 17 41  1  0  0  0  0
 18 42  1  0  0  0  0
 19 20  2  0  0  0  0
 19 43  1  0  0  0  0
 20 44  1  0  0  0  0
 21 45  1  0  0  0  0
 21 46  1  0  0  0  0
 21 47  1  0  0  0  0
 22 25  1  0  0  0  0
 22 48  1  0  0  0  0
 23 26  2  0  0  0  0
 23 49  1  0  0  0  0
 24 30  2  0  0  0  0
 24 31  1  0  0  0  0
 25 27  2  0  0  0  0
 26 27  1  0  0  0  0
 26 50  1  0  0  0  0
 27 51  1  0  0  0  0
 28 52  1  0  0  0  0
 28 53  1  0  0  0  0
 28 54  1  0  0  0  0
 29 55  1  0  0  0  0
 29 56  1  0  0  0  0
 29 57  1  0  0  0  0
 30 58  1  0  0  0  0
 31 59  1  0  0  0  0
 32 61  1  0  0  0  0
 32 62  1  0  0  0  0
 32 63  1  0  0  0  0
M  END
> <PUBCHEM_COMPOUND_CID>
68565470

> <PUBCHEM_CONFORMER_RMSD>
1.2

> <PUBCHEM_CONFORMER_DIVERSEORDER>
1
85
45
150
26
43
126
162
81
74
33
128
96
113
132
28
78
156
83
53
154
119
51
99
94
140
135
112
137
152
164
134
52
44
116
115
75
153
121
148
60
24
131
65
23
79
67
72
109
84
111
110
62
127
87
149
38
122
46
95
32
56
89
151
161
145
39
48
88
138
80
125
101
90
19
77
104
102
117
155
64
40
98
31
123
37
120
49
143
158
157
47
68
22
166
20
139
118
129
55
107
165
6
82
27
76
12
133
58
130
41
57
54
11
9
100
106
13
105
61
71
103
25
108
92
50
59
86
141
14
136
4
10
15
7
29
18
144
21
124
73
93
70
160
159
36
42
147
163
91
69
63
16
114
3
5
142
8
30
17
97
35
146
2
34
66

> <PUBCHEM_MMFF94_PARTIAL_CHARGES>
42
1 -0.36
10 0.3
11 0.12
12 -0.14
13 0.08
14 0.69
15 0.05
16 0.27
17 0.28
18 -0.15
19 -0.15
2 -0.57
20 -0.15
22 -0.15
23 -0.15
24 -0.05
25 0.08
26 -0.15
27 -0.15
28 0.27
29 0.27
3 -0.36
30 -0.3
31 0.14
32 0.28
37 0.37
4 -0.66
42 0.15
43 0.15
44 0.15
48 0.15
49 0.15
5 -0.55
50 0.15
51 0.15
58 0.15
59 0.15
6 -0.81
60 0.27
7 0.3
8 -0.71
9 0.44

> <PUBCHEM_EFFECTIVE_ROTOR_COUNT>
12

> <PUBCHEM_PHARMACOPHORE_FEATURES>
10
1 1 acceptor
1 2 acceptor
1 3 acceptor
1 5 donor
1 6 cation
1 7 donor
1 8 acceptor
5 7 8 24 30 31 rings
6 11 13 15 18 19 20 rings
6 12 22 23 25 26 27 rings

> <PUBCHEM_HEAVY_ATOM_COUNT>
32

> <PUBCHEM_ATOM_DEF_STEREO_COUNT>
0

> <PUBCHEM_ATOM_UDEF_STEREO_COUNT>
0

> <PUBCHEM_BOND_DEF_STEREO_COUNT>
0

> <PUBCHEM_BOND_UDEF_STEREO_COUNT>
0

> <PUBCHEM_ISOTOPIC_ATOM_COUNT>
0

> <PUBCHEM_COMPONENT_COUNT>
1

> <PUBCHEM_CACTVS_TAUTO_COUNT>
2

> <PUBCHEM_CONFORMER_ID>
041639DE00000001

> <PUBCHEM_MMFF94_ENERGY>
98.4734

> <PUBCHEM_FEATURE_SELFOVERLAP>
50.747

> <PUBCHEM_SHAPE_FINGERPRINT>
10074138 170 17475498487992567416
11399510 152 18048618176941715747
12293681 4 18049724018802489640
12342043 65 18040722467635347895
12988421 55 17694478735509261688
14444916 359 18122344855501449028
14849402 71 18341613767505168528
14950920 106 18342187678372949963
14955137 171 18341047415937343662
15475509 84 18341059505727495489
15684970 41 18119496952496358202
18393751 57 17329987409596164545
19611394 137 18335133194774282690
21796203 349 18341911670441350130
21987483 16 18123195869175118603
23559900 14 18113053848690468085
2747138 104 18267578015237776290
3552219 110 18189910729932887710
4015057 19 18340188731985029093
5104073 3 18337107852716033872
6371380 46 18189892007986393037
6703917 75 17543927049277122484
8863177 126 18187368718251258894

> <PUBCHEM_SHAPE_MULTIPOLES>
616.03
14.61
7.41
1.77
4.51
9.79
0
-13.85
-7.62
-11.23
-4.27
1.79
0.78
2.94

> <PUBCHEM_SHAPE_SELFOVERLAP>
1297.755

> <PUBCHEM_SHAPE_VOLUME>
349.3

> <PUBCHEM_COORDINATE_TYPE>
2
5
10

$$$$
68566105
  -OEChem-05102415103D

 67 69  0     1  0  0  0  0  0999 V2000
   -1.9621   -1.0286   -2.0331 O   0  0  0  0  0  0  0  0  0  0  0  0
   -4.7529   -2.9882    1.6993 O   0  0  0  0  0  0  0  0  0  0  0  0
    2.0868    1.9082   -1.0605 N   0  0  3  0  0  0  0  0  0  0  0  0
    3.0156    3.9585    1.8930 N   0  0  0  0  0  0  0  0  0  0  0  0
   -2.7381    1.0238   -1.2952 N   0  0  0  0  0  0  0  0  0  0  0  0
   -0.4229    0.5984   -1.4032 N   0  0  0  0  0  0  0  0  0  0  0  0
    6.0980   -2.8926    0.8895 N   0  0  0  0  0  0  0  0  0  0  0  0
    5.7062   -4.0267    0.2841 N   0  0  0  0  0  0  0  0  0  0  0  0
    1.8812    2.8127    0.0514 C   0  0  0  0  0  0  0  0  0  0  0  0
    1.9660    0.5123   -0.8768 C   0  0  0  0  0  0  0  0  0  0  0  0
    3.1982    3.0281    0.7860 C   0  0  0  0  0  0  0  0  0  0  0  0
    0.7389   -0.1293   -1.0447 C   0  0  0  0  0  0  0  0  0  0  0  0
    3.0959   -0.2249   -0.5224 C   0  0  0  0  0  0  0  0  0  0  0  0
    2.9987   -1.6039   -0.3362 C   0  0  0  0  0  0  0  0  0  0  0  0
    2.4099    2.4488   -2.3645 C   0  0  0  0  0  0  0  0  0  0  0  0
    0.6418   -1.5083   -0.8582 C   0  0  0  0  0  0  0  0  0  0  0  0
   -4.1492    0.6997   -1.4624 C   0  0  0  0  0  0  0  0  0  0  0  0
    1.7717   -2.2456   -0.5041 C   0  0  0  0  0  0  0  0  0  0  0  0
   -1.7126    0.1003   -1.6049 C   0  0  0  0  0  0  0  0  0  0  0  0
   -2.4501    2.3635   -0.7874 C   0  0  0  0  0  0  0  0  0  0  0  0
    4.1617   -2.3633    0.0282 C   0  0  0  0  0  0  0  0  0  0  0  0
   -4.7484    0.1343   -0.2072 C   0  0  0  0  0  0  0  0  0  0  0  0
    2.4130    3.2811    3.0426 C   0  0  0  0  0  0  0  0  0  0  0  0
    4.2929    4.5645    2.2738 C   0  0  0  0  0  0  0  0  0  0  0  0
   -2.2973    3.3630   -1.9152 C   0  0  0  0  0  0  0  0  0  0  0  0
   -4.4698   -1.1802    0.1672 C   0  0  0  0  0  0  0  0  0  0  0  0
   -5.5837    0.9226    0.5842 C   0  0  0  0  0  0  0  0  0  0  0  0
    5.2082   -1.8661    0.7659 C   0  0  0  0  0  0  0  0  0  0  0  0
    4.5228   -3.6973   -0.2403 C   0  0  0  0  0  0  0  0  0  0  0  0
   -5.0265   -1.7062    1.3330 C   0  0  0  0  0  0  0  0  0  0  0  0
   -6.1407    0.3965    1.7499 C   0  0  0  0  0  0  0  0  0  0  0  0
   -5.8621   -0.9178    2.1243 C   0  0  0  0  0  0  0  0  0  0  0  0
   -3.8910   -3.7377    0.8441 C   0  0  0  0  0  0  0  0  0  0  0  0
    1.4889    3.7720   -0.3106 H   0  0  0  0  0  0  0  0  0  0  0  0
    1.1105    2.4048    0.7154 H   0  0  0  0  0  0  0  0  0  0  0  0
    3.6341    2.0833    1.1327 H   0  0  0  0  0  0  0  0  0  0  0  0
    3.9127    3.4432    0.0617 H   0  0  0  0  0  0  0  0  0  0  0  0
    4.0491    0.2890   -0.4197 H   0  0  0  0  0  0  0  0  0  0  0  0
    2.5734    3.5312   -2.3272 H   0  0  0  0  0  0  0  0  0  0  0  0
    1.5970    2.2582   -3.0729 H   0  0  0  0  0  0  0  0  0  0  0  0
    3.3253    1.9926   -2.7565 H   0  0  0  0  0  0  0  0  0  0  0  0
   -0.2854   -2.0611   -0.9426 H   0  0  0  0  0  0  0  0  0  0  0  0
   -0.2763    1.5990   -1.4822 H   0  0  0  0  0  0  0  0  0  0  0  0
   -4.2534   -0.0402   -2.2659 H   0  0  0  0  0  0  0  0  0  0  0  0
   -4.6903    1.5911   -1.8015 H   0  0  0  0  0  0  0  0  0  0  0  0
    1.6674   -3.3173   -0.3527 H   0  0  0  0  0  0  0  0  0  0  0  0
   -3.2688    2.6777   -0.1302 H   0  0  0  0  0  0  0  0  0  0  0  0
   -1.5561    2.3579   -0.1562 H   0  0  0  0  0  0  0  0  0  0  0  0
    3.0292    2.4499    3.4048 H   0  0  0  0  0  0  0  0  0  0  0  0
    2.2781    3.9870    3.8705 H   0  0  0  0  0  0  0  0  0  0  0  0
    1.4150    2.8968    2.8112 H   0  0  0  0  0  0  0  0  0  0  0  0
    4.1511    5.2811    3.0905 H   0  0  0  0  0  0  0  0  0  0  0  0
    5.0256    3.8151    2.5948 H   0  0  0  0  0  0  0  0  0  0  0  0
    4.7182    5.1286    1.4361 H   0  0  0  0  0  0  0  0  0  0  0  0
   -1.4892    3.0846   -2.5988 H   0  0  0  0  0  0  0  0  0  0  0  0
   -3.2163    3.4367   -2.5059 H   0  0  0  0  0  0  0  0  0  0  0  0
   -2.0744    4.3564   -1.5135 H   0  0  0  0  0  0  0  0  0  0  0  0
   -3.8292   -1.7588   -0.4866 H   0  0  0  0  0  0  0  0  0  0  0  0
   -5.8092    1.9483    0.3046 H   0  0  0  0  0  0  0  0  0  0  0  0
    5.4068   -0.9033    1.2164 H   0  0  0  0  0  0  0  0  0  0  0  0
    3.9801   -4.4481   -0.7975 H   0  0  0  0  0  0  0  0  0  0  0  0
   -6.7910    1.0105    2.3661 H   0  0  0  0  0  0  0  0  0  0  0  0
   -6.2984   -1.3220    3.0336 H   0  0  0  0  0  0  0  0  0  0  0  0
    6.9875   -2.8892    1.3728 H   0  0  0  0  0  0  0  0  0  0  0  0
   -3.7792   -4.7317    1.2897 H   0  0  0  0  0  0  0  0  0  0  0  0
   -2.8895   -3.2967    0.7938 H   0  0  0  0  0  0  0  0  0  0  0  0
   -4.3330   -3.8809   -0.1478 H   0  0  0  0  0  0  0  0  0  0  0  0
  1 19  2  0  0  0  0
  2 30  1  0  0  0  0
  2 33  1  0  0  0  0
  3  9  1  0  0  0  0
  3 10  1  0  0  0  0
  3 15  1  0  0  0  0
  4 11  1  0  0  0  0
  4 23  1  0  0  0  0
  4 24  1  0  0  0  0
  5 17  1  0  0  0  0
  5 19  1  0  0  0  0
  5 20  1  0  0  0  0
  6 12  1  0  0  0  0
  6 19  1  0  0  0  0
  6 43  1  0  0  0  0
  7  8  1  0  0  0  0
  7 28  1  0  0  0  0
  7 64  1  0  0  0  0
  8 29  2  0  0  0  0
  9 11  1  0  0  0  0
  9 34  1  0  0  0  0
  9 35  1  0  0  0  0
 10 12  2  0  0  0  0
 10 13  1  0  0  0  0
 11 36  1  0  0  0  0
 11 37  1  0  0  0  0
 12 16  1  0  0  0  0
 13 14  2  0  0  0  0
 13 38  1  0  0  0  0
 14 18  1  0  0  0  0
 14 21  1  0  0  0  0
 15 39  1  0  0  0  0
 15 40  1  0  0  0  0
 15 41  1  0  0  0  0
 16 18  2  0  0  0  0
 16 42  1  0  0  0  0
 17 22  1  0  0  0  0
 17 44  1  0  0  0  0
 17 45  1  0  0  0  0
 18 46  1  0  0  0  0
 20 25  1  0  0  0  0
 20 47  1  0  0  0  0
 20 48  1  0  0  0  0
 21 28  2  0  0  0  0
 21 29  1  0  0  0  0
 22 26  2  0  0  0  0
 22 27  1  0  0  0  0
 23 49  1  0  0  0  0
 23 50  1  0  0  0  0
 23 51  1  0  0  0  0
 24 52  1  0  0  0  0
 24 53  1  0  0  0  0
 24 54  1  0  0  0  0
 25 55  1  0  0  0  0
 25 56  1  0  0  0  0
 25 57  1  0  0  0  0
 26 30  1  0  0  0  0
 26 58  1  0  0  0  0
 27 31  2  0  0  0  0
 27 59  1  0  0  0  0
 28 60  1  0  0  0  0
 29 61  1  0  0  0  0
 30 32  2  0  0  0  0
 31 32  1  0  0  0  0
 31 62  1  0  0  0  0
 32 63  1  0  0  0  0
 33 65  1  0  0  0  0
 33 66  1  0  0  0  0
 33 67  1  0  0  0  0
M  END
> <PUBCHEM_COMPOUND_CID>
68566105

> <PUBCHEM_CONFORMER_RMSD>
1.2

> <PUBCHEM_CONFORMER_DIVERSEORDER>
1
75
181
7
108
42
110
203
183
140
70
146
64
31
151
200
173
34
154
193
187
190
87
194
19
158
107
79
36
112
44
80
149
141
10
72
43
32
93
21
150
30
104
59
122
129
12
45
60
120
66
27
96
177
162
170
98
132
86
201
119
62
52
23
67
123
202
179
105
81
208
56
139
61
198
191
37
207
206
85
99
197
46
111
115
160
95
143
71
83
138
13
118
69
184
109
188
68
204
38
168
148
144
58
22
102
136
82
94
205
5
128
189
125
137
53
121
24
159
117
48
103
73
47
57
152
17
165
40
124
101
164
84
88
90
41
161
153
77
134
51
26
63
35
106
172
65
176
49
50
74
147
18
186
174
33
163
97
54
196
135
175
2
55
91
156
178
185
199
131
78
29
100
145
14
127
3
116
4
167
20
11
166
28
192
142
133
182
171
6
209
25
113
16
126
114
130
9
157
195
89
169
15
180
92
76
39
155
8

> <PUBCHEM_MMFF94_PARTIAL_CHARGES>
43
1 -0.57
10 0.1
11 0.27
12 0.12
13 -0.15
14 0.05
15 0.37
16 -0.15
17 0.44
18 -0.15
19 0.69
2 -0.36
20 0.3
21 -0.05
22 -0.14
23 0.27
24 0.27
26 -0.15
27 -0.15
28 -0.3
29 0.14
3 -0.84
30 0.08
31 -0.15
32 -0.15
33 0.28
38 0.15
4 -0.81
42 0.15
43 0.37
46 0.15
5 -0.66
58 0.15
59 0.15
6 -0.55
60 0.15
61 0.15
62 0.15
63 0.15
64 0.27
7 0.3
8 -0.71
9 0.37

> <PUBCHEM_EFFECTIVE_ROTOR_COUNT>
12

> <PUBCHEM_PHARMACOPHORE_FEATURES>
10
1 1 acceptor
1 2 acceptor
1 3 cation
1 4 cation
1 6 donor
1 7 donor
1 8 acceptor
5 7 8 21 28 29 rings
6 10 12 13 14 16 18 rings
6 22 26 27 30 31 32 rings

> <PUBCHEM_HEAVY_ATOM_COUNT>
33

> <PUBCHEM_ATOM_DEF_STEREO_COUNT>
0

> <PUBCHEM_ATOM_UDEF_STEREO_COUNT>
0

> <PUBCHEM_BOND_DEF_STEREO_COUNT>
0

> <PUBCHEM_BOND_UDEF_STEREO_COUNT>
0

> <PUBCHEM_ISOTOPIC_ATOM_COUNT>
0

> <PUBCHEM_COMPONENT_COUNT>
1

> <PUBCHEM_CACTVS_TAUTO_COUNT>
2

> <PUBCHEM_CONFORMER_ID>
04163C5900000001

> <PUBCHEM_MMFF94_ENERGY>
114.7847

> <PUBCHEM_FEATURE_SELFOVERLAP>
50.746

> <PUBCHEM_SHAPE_FINGERPRINT>
11070050 100 18055634164459059552
11399510 152 18194139623162369515
12988421 55 17696728310603649952
14444916 359 18196368350702318616
14849402 71 18343299301698250248
14950920 106 18342187665509062651
14955137 171 18200599086165658694
15475509 84 18200039430056910720
15684970 41 18120059876674811442
17913733 40 18198339761294905672
17980427 23 16199847502544037384
18393751 57 17476067403407571377
19304152 47 18124022692574994697
19611394 137 18409164373471600234
21796203 349 18200887192582527486
21927370 108 18127407849080694690
22122407 14 17631472141350523649
23559900 14 18186237316823210781
249057 25 17346586492201927517
3552219 110 18267031566526899044
5104073 3 18337113362768983229
6371380 46 18117552926049870829
6703917 75 17690843784685872840
8863177 126 18186526487885832966

> <PUBCHEM_SHAPE_MULTIPOLES>
637.5
14.82
5.97
2.4
9.05
1.45
-0.75
-9.48
-8.69
-9.63
-3.07
0.54
2.45
4

> <PUBCHEM_SHAPE_SELFOVERLAP>
1338.912

> <PUBCHEM_SHAPE_VOLUME>
362.8

> <PUBCHEM_COORDINATE_TYPE>
2
5
10

$$$$
118729139
  -OEChem-05102415103D

 67 69  0     0  0  0  0  0  0999 V2000
    1.6626    1.8049   -0.7075 O   0  0  0  0  0  0  0  0  0  0  0  0
   -1.2168   -2.1968   -1.8402 O   0  0  0  0  0  0  0  0  0  0  0  0
   -2.6038   -0.5655   -0.9605 N   0  0  0  0  0  0  0  0  0  0  0  0
   -3.1582    3.1300   -0.8207 N   0  0  0  0  0  0  0  0  0  0  0  0
   -0.2821   -0.1935   -1.1148 N   0  0  0  0  0  0  0  0  0  0  0  0
    0.9856    4.5660    1.6344 N   0  0  0  0  0  0  0  0  0  0  0  0
    7.0978   -1.4221    0.8817 N   0  0  0  0  0  0  0  0  0  0  0  0
    7.0906   -2.5843    0.2067 N   0  0  0  0  0  0  0  0  0  0  0  0
   -2.7587    0.7606   -0.3664 C   0  0  0  0  0  0  0  0  0  0  0  0
   -2.9779    1.8210   -1.4353 C   0  0  0  0  0  0  0  0  0  0  0  0
   -3.8334   -1.3276   -1.1379 C   0  0  0  0  0  0  0  0  0  0  0  0
   -1.3408   -1.0771   -1.3394 C   0  0  0  0  0  0  0  0  0  0  0  0
   -4.1753   -2.1343    0.0812 C   0  0  0  0  0  0  0  0  0  0  0  0
    1.0648   -0.5161   -0.8150 C   0  0  0  0  0  0  0  0  0  0  0  0
    2.0104    0.4901   -0.6170 C   0  0  0  0  0  0  0  0  0  0  0  0
   -4.5165    3.2692   -0.2916 C   0  0  0  0  0  0  0  0  0  0  0  0
   -2.8780    4.1961   -1.7845 C   0  0  0  0  0  0  0  0  0  0  0  0
    3.7091   -1.1830   -0.2266 C   0  0  0  0  0  0  0  0  0  0  0  0
    3.3324    0.1566   -0.3226 C   0  0  0  0  0  0  0  0  0  0  0  0
    1.4415   -1.8557   -0.7186 C   0  0  0  0  0  0  0  0  0  0  0  0
   -3.6957   -3.4376    0.2125 C   0  0  0  0  0  0  0  0  0  0  0  0
   -4.9725   -1.5804    1.0829 C   0  0  0  0  0  0  0  0  0  0  0  0
    1.8603    2.6080    0.4542 C   0  0  0  0  0  0  0  0  0  0  0  0
    0.8325    3.7284    0.4542 C   0  0  0  0  0  0  0  0  0  0  0  0
    2.7636   -2.1892   -0.4247 C   0  0  0  0  0  0  0  0  0  0  0  0
    5.0704   -1.5264    0.0757 C   0  0  0  0  0  0  0  0  0  0  0  0
   -4.0132   -4.1867    1.3455 C   0  0  0  0  0  0  0  0  0  0  0  0
   -5.2898   -2.3295    2.2160 C   0  0  0  0  0  0  0  0  0  0  0  0
   -4.8102   -3.6327    2.3473 C   0  0  0  0  0  0  0  0  0  0  0  0
   -0.2544    5.2924    1.9187 C   0  0  0  0  0  0  0  0  0  0  0  0
    2.0944    5.5077    1.4614 C   0  0  0  0  0  0  0  0  0  0  0  0
    5.9119   -0.7500    0.8345 C   0  0  0  0  0  0  0  0  0  0  0  0
    5.8495   -2.6424   -0.2834 C   0  0  0  0  0  0  0  0  0  0  0  0
   -3.5988    0.7218    0.3305 H   0  0  0  0  0  0  0  0  0  0  0  0
   -1.8901    1.0058    0.2552 H   0  0  0  0  0  0  0  0  0  0  0  0
   -2.0969    1.8324   -2.0897 H   0  0  0  0  0  0  0  0  0  0  0  0
   -3.8234    1.5613   -2.0860 H   0  0  0  0  0  0  0  0  0  0  0  0
   -3.7122   -2.0013   -1.9952 H   0  0  0  0  0  0  0  0  0  0  0  0
   -4.6531   -0.6489   -1.4034 H   0  0  0  0  0  0  0  0  0  0  0  0
   -0.4723    0.8029   -1.1254 H   0  0  0  0  0  0  0  0  0  0  0  0
   -4.7214    2.5470    0.5041 H   0  0  0  0  0  0  0  0  0  0  0  0
   -5.2793    3.1535   -1.0704 H   0  0  0  0  0  0  0  0  0  0  0  0
   -4.6460    4.2586    0.1627 H   0  0  0  0  0  0  0  0  0  0  0  0
   -1.8413    4.1366   -2.1347 H   0  0  0  0  0  0  0  0  0  0  0  0
   -2.9900    5.1795   -1.3142 H   0  0  0  0  0  0  0  0  0  0  0  0
   -3.5422    4.1509   -2.6552 H   0  0  0  0  0  0  0  0  0  0  0  0
    4.0607    0.9541   -0.1951 H   0  0  0  0  0  0  0  0  0  0  0  0
    0.7496   -2.6809   -0.8329 H   0  0  0  0  0  0  0  0  0  0  0  0
    1.7504    2.0036    1.3648 H   0  0  0  0  0  0  0  0  0  0  0  0
    2.8812    3.0018    0.4185 H   0  0  0  0  0  0  0  0  0  0  0  0
   -3.0760   -3.8839   -0.5603 H   0  0  0  0  0  0  0  0  0  0  0  0
   -5.3675   -0.5726    0.9910 H   0  0  0  0  0  0  0  0  0  0  0  0
    0.8785    4.3037   -0.4801 H   0  0  0  0  0  0  0  0  0  0  0  0
   -0.1563    3.2492    0.4483 H   0  0  0  0  0  0  0  0  0  0  0  0
    3.0296   -3.2404   -0.3437 H   0  0  0  0  0  0  0  0  0  0  0  0
   -3.6404   -5.2017    1.4475 H   0  0  0  0  0  0  0  0  0  0  0  0
   -5.9133   -1.8994    2.9945 H   0  0  0  0  0  0  0  0  0  0  0  0
   -5.0580   -4.2163    3.2291 H   0  0  0  0  0  0  0  0  0  0  0  0
   -0.5469    5.9484    1.0906 H   0  0  0  0  0  0  0  0  0  0  0  0
   -1.0756    4.5930    2.1125 H   0  0  0  0  0  0  0  0  0  0  0  0
   -0.1455    5.9027    2.8222 H   0  0  0  0  0  0  0  0  0  0  0  0
    1.9451    6.1704    0.6010 H   0  0  0  0  0  0  0  0  0  0  0  0
    2.2043    6.1328    2.3552 H   0  0  0  0  0  0  0  0  0  0  0  0
    3.0500    4.9892    1.3378 H   0  0  0  0  0  0  0  0  0  0  0  0
    5.7900    0.1951    1.3456 H   0  0  0  0  0  0  0  0  0  0  0  0
    5.5730   -3.4981   -0.8835 H   0  0  0  0  0  0  0  0  0  0  0  0
    7.9493   -1.1479    1.3557 H   0  0  0  0  0  0  0  0  0  0  0  0
  1 15  1  0  0  0  0
  1 23  1  0  0  0  0
  2 12  2  0  0  0  0
  3  9  1  0  0  0  0
  3 11  1  0  0  0  0
  3 12  1  0  0  0  0
  4 10  1  0  0  0  0
  4 16  1  0  0  0  0
  4 17  1  0  0  0  0
  5 12  1  0  0  0  0
  5 14  1  0  0  0  0
  5 40  1  0  0  0  0
  6 24  1  0  0  0  0
  6 30  1  0  0  0  0
  6 31  1  0  0  0  0
  7  8  1  0  0  0  0
  7 32  1  0  0  0  0
  7 67  1  0  0  0  0
  8 33  2  0  0  0  0
  9 10  1  0  0  0  0
  9 34  1  0  0  0  0
  9 35  1  0  0  0  0
 10 36  1  0  0  0  0
 10 37  1  0  0  0  0
 11 13  1  0  0  0  0
 11 38  1  0  0  0  0
 11 39  1  0  0  0  0
 13 21  2  0  0  0  0
 13 22  1  0  0  0  0
 14 15  2  0  0  0  0
 14 20  1  0  0  0  0
 15 19  1  0  0  0  0
 16 41  1  0  0  0  0
 16 42  1  0  0  0  0
 16 43  1  0  0  0  0
 17 44  1  0  0  0  0
 17 45  1  0  0  0  0
 17 46  1  0  0  0  0
 18 19  2  0  0  0  0
 18 25  1  0  0  0  0
 18 26  1  0  0  0  0
 19 47  1  0  0  0  0
 20 25  2  0  0  0  0
 20 48  1  0  0  0  0
 21 27  1  0  0  0  0
 21 51  1  0  0  0  0
 22 28  2  0  0  0  0
 22 52  1  0  0  0  0
 23 24  1  0  0  0  0
 23 49  1  0  0  0  0
 23 50  1  0  0  0  0
 24 53  1  0  0  0  0
 24 54  1  0  0  0  0
 25 55  1  0  0  0  0
 26 32  2  0  0  0  0
 26 33  1  0  0  0  0
 27 29  2  0  0  0  0
 27 56  1  0  0  0  0
 28 29  1  0  0  0  0
 28 57  1  0  0  0  0
 29 58  1  0  0  0  0
 30 59  1  0  0  0  0
 30 60  1  0  0  0  0
 30 61  1  0  0  0  0
 31 62  1  0  0  0  0
 31 63  1  0  0  0  0
 31 64  1  0  0  0  0
 32 65  1  0  0  0  0
 33 66  1  0  0  0  0
M  END
> <PUBCHEM_COMPOUND_CID>
118729139

> <PUBCHEM_CONFORMER_RMSD>
1.2

> <PUBCHEM_CONFORMER_DIVERSEORDER>
1
106
10
54
119
100
85
26
98
76
28
70
52
79
120
67
32
117
83
46
122
92
61
17
74
57
102
22
41
50
25
81
49
62
109
104
123
56
21
6
38
44
33
80
19
91
23
101
118
55
8
87
103
40
58
113
86
94
90
27
77
36
84
42
59
63
39
93
95
89
16
34
3
64
71
31
24
13
48
53
35
9
114
20
2
29
78
15
14
47
4
43
5
112
105
88
69
96
73
108
82
51
68
65
121
30
37
75
97
11
72
12
7
115
66
45
18
99
110
107
116
111
60

> <PUBCHEM_MMFF94_PARTIAL_CHARGES>
45
1 -0.36
10 0.27
11 0.44
12 0.69
13 -0.14
14 0.12
15 0.08
16 0.27
17 0.27
18 0.05
19 -0.15
2 -0.57
20 -0.15
21 -0.15
22 -0.15
23 0.28
24 0.27
25 -0.15
26 -0.05
27 -0.15
28 -0.15
29 -0.15
3 -0.66
30 0.27
31 0.27
32 -0.3
33 0.14
4 -0.81
40 0.37
47 0.15
48 0.15
5 -0.55
51 0.15
52 0.15
55 0.15
56 0.15
57 0.15
58 0.15
6 -0.81
65 0.15
66 0.15
67 0.27
7 0.3
8 -0.71
9 0.3

> <PUBCHEM_EFFECTIVE_ROTOR_COUNT>
13

> <PUBCHEM_PHARMACOPHORE_FEATURES>
10
1 1 acceptor
1 2 acceptor
1 4 cation
1 5 donor
1 6 cation
1 7 donor
1 8 acceptor
5 7 8 26 32 33 rings
6 13 21 22 27 28 29 rings
6 14 15 18 19 20 25 rings

> <PUBCHEM_HEAVY_ATOM_COUNT>
33

> <PUBCHEM_ATOM_DEF_STEREO_COUNT>
0

> <PUBCHEM_ATOM_UDEF_STEREO_COUNT>
0

> <PUBCHEM_BOND_DEF_STEREO_COUNT>
0

> <PUBCHEM_BOND_UDEF_STEREO_COUNT>
0

> <PUBCHEM_ISOTOPIC_ATOM_COUNT>
0

> <PUBCHEM_COMPONENT_COUNT>
1

> <PUBCHEM_CACTVS_TAUTO_COUNT>
11

> <PUBCHEM_CONFORMER_ID>
0713A9B300000001

> <PUBCHEM_MMFF94_ENERGY>
93.3196

> <PUBCHEM_FEATURE_SELFOVERLAP>
50.746

> <PUBCHEM_SHAPE_FINGERPRINT>
10290309 65 17539685803315009591
10675989 125 17112684896375227829
11756154 5 18338516327048385937
12293681 4 18267306426135927600
13947930 73 18335150765343325913
140371 6 18126289636548276340
14363568 33 18197214956858268552
14950920 106 18126299751259906371
14955137 171 18341613741772236094
15815584 197 18058460815469988550
20505436 4 14058666147366620023
21033648 29 17559368336978807162
21796203 349 18197238012179384162
23522609 53 17097519530721108254
23559900 14 17969497285530750047
2747138 104 18412260628665037514
4073 2 18261955142289714790
42626532 9 18410847742620772426
4616759 239 18193821679617919458
5104073 3 18335132082171764450
57527573 199 17912647899873065933
6009941 240 18189611653542219014

> <PUBCHEM_SHAPE_MULTIPOLES>
637.5
14.18
7.86
1.84
13.81
11.76
0.57
-17.31
5.06
-3.25
4.23
-2.22
0.51
4.58

> <PUBCHEM_SHAPE_SELFOVERLAP>
1333.602

> <PUBCHEM_SHAPE_VOLUME>
364.3

> <PUBCHEM_COORDINATE_TYPE>
2
5
10

$$$$
90354190
  -OEChem-05102415133D

 44 46  0     0  0  0  0  0  0999 V2000
   -0.0305   -1.0084   -0.6035 O   0  0  0  0  0  0  0  0  0  0  0  0
    0.9247    2.7677    0.2792 O   0  0  0  0  0  0  0  0  0  0  0  0
    4.7563   -2.5776    0.5481 O   0  0  0  0  0  0  0  0  0  0  0  0
    1.4287    1.0642   -1.2110 N   0  0  0  0  0  0  0  0  0  0  0  0
   -6.5054   -1.4659   -0.0080 N   0  0  0  0  0  0  0  0  0  0  0  0
   -6.9008   -0.5138    0.8542 N   0  0  0  0  0  0  0  0  0  0  0  0
   -0.7817    1.2350   -0.2077 C   0  0  0  0  0  0  0  0  0  0  0  0
   -3.3838    0.2708    0.0799 C   0  0  0  0  0  0  0  0  0  0  0  0
    2.8034    1.4453   -1.4428 C   0  0  0  0  0  0  0  0  0  0  0  0
   -1.0379   -0.1300   -0.3369 C   0  0  0  0  0  0  0  0  0  0  0  0
    3.7406    0.7854   -0.4729 C   0  0  0  0  0  0  0  0  0  0  0  0
   -2.3389   -0.6121   -0.1929 C   0  0  0  0  0  0  0  0  0  0  0  0
   -1.8266    2.1179    0.0653 C   0  0  0  0  0  0  0  0  0  0  0  0
    0.5689    1.7595   -0.3543 C   0  0  0  0  0  0  0  0  0  0  0  0
   -3.1277    1.6358    0.2090 C   0  0  0  0  0  0  0  0  0  0  0  0
   -4.7232   -0.2253    0.2280 C   0  0  0  0  0  0  0  0  0  0  0  0
    3.8135   -0.6062   -0.4114 C   0  0  0  0  0  0  0  0  0  0  0  0
    4.5378    1.5633    0.3668 C   0  0  0  0  0  0  0  0  0  0  0  0
    4.6837   -1.2198    0.4897 C   0  0  0  0  0  0  0  0  0  0  0  0
   -5.2094   -1.3383   -0.4135 C   0  0  0  0  0  0  0  0  0  0  0  0
   -5.8079    0.2411    0.9946 C   0  0  0  0  0  0  0  0  0  0  0  0
    5.4077    0.9496    1.2681 C   0  0  0  0  0  0  0  0  0  0  0  0
    5.4806   -0.4419    1.3296 C   0  0  0  0  0  0  0  0  0  0  0  0
   -0.3854   -2.3848   -0.7185 C   0  0  0  0  0  0  0  0  0  0  0  0
    3.9133   -3.3116   -0.3390 C   0  0  0  0  0  0  0  0  0  0  0  0
    2.8806    2.5370   -1.3884 H   0  0  0  0  0  0  0  0  0  0  0  0
    3.0640    1.1486   -2.4649 H   0  0  0  0  0  0  0  0  0  0  0  0
   -2.5754   -1.6676   -0.2662 H   0  0  0  0  0  0  0  0  0  0  0  0
   -1.6493    3.1859    0.1635 H   0  0  0  0  0  0  0  0  0  0  0  0
   -3.9251    2.3457    0.4146 H   0  0  0  0  0  0  0  0  0  0  0  0
    1.0849    0.2537   -1.7168 H   0  0  0  0  0  0  0  0  0  0  0  0
    3.1761   -1.1632   -1.0902 H   0  0  0  0  0  0  0  0  0  0  0  0
    4.4912    2.6484    0.3308 H   0  0  0  0  0  0  0  0  0  0  0  0
   -4.7775   -2.0395   -1.1143 H   0  0  0  0  0  0  0  0  0  0  0  0
   -5.8549    1.0967    1.6538 H   0  0  0  0  0  0  0  0  0  0  0  0
    6.0282    1.5553    1.9221 H   0  0  0  0  0  0  0  0  0  0  0  0
    6.1604   -0.9142    2.0335 H   0  0  0  0  0  0  0  0  0  0  0  0
   -7.1749   -2.1747   -0.2802 H   0  0  0  0  0  0  0  0  0  0  0  0
    0.5329   -2.9351   -0.9471 H   0  0  0  0  0  0  0  0  0  0  0  0
   -1.0699   -2.5589   -1.5559 H   0  0  0  0  0  0  0  0  0  0  0  0
   -0.7665   -2.7844    0.2274 H   0  0  0  0  0  0  0  0  0  0  0  0
    4.1625   -3.1160   -1.3874 H   0  0  0  0  0  0  0  0  0  0  0  0
    2.8550   -3.1358   -0.1217 H   0  0  0  0  0  0  0  0  0  0  0  0
    4.1033   -4.3748   -0.1591 H   0  0  0  0  0  0  0  0  0  0  0  0
  1 10  1  0  0  0  0
  1 24  1  0  0  0  0
  2 14  2  0  0  0  0
  3 19  1  0  0  0  0
  3 25  1  0  0  0  0
  4  9  1  0  0  0  0
  4 14  1  0  0  0  0
  4 31  1  0  0  0  0
  5  6  1  0  0  0  0
  5 20  1  0  0  0  0
  5 38  1  0  0  0  0
  6 21  2  0  0  0  0
  7 10  2  0  0  0  0
  7 13  1  0  0  0  0
  7 14  1  0  0  0  0
  8 12  2  0  0  0  0
  8 15  1  0  0  0  0
  8 16  1  0  0  0  0
  9 11  1  0  0  0  0
  9 26  1  0  0  0  0
  9 27  1  0  0  0  0
 10 12  1  0  0  0  0
 11 17  2  0  0  0  0
 11 18  1  0  0  0  0
 12 28  1  0  0  0  0
 13 15  2  0  0  0  0
 13 29  1  0  0  0  0
 15 30  1  0  0  0  0
 16 20  2  0  0  0  0
 16 21  1  0  0  0  0
 17 19  1  0  0  0  0
 17 32  1  0  0  0  0
 18 22  2  0  0  0  0
 18 33  1  0  0  0  0
 19 23  2  0  0  0  0
 20 34  1  0  0  0  0
 21 35  1  0  0  0  0
 22 23  1  0  0  0  0
 22 36  1  0  0  0  0
 23 37  1  0  0  0  0
 24 39  1  0  0  0  0
 24 40  1  0  0  0  0
 24 41  1  0  0  0  0
 25 42  1  0  0  0  0
 25 43  1  0  0  0  0
 25 44  1  0  0  0  0
M  END
> <PUBCHEM_COMPOUND_CID>
90354190

> <PUBCHEM_CONFORMER_RMSD>
0.8

> <PUBCHEM_CONFORMER_DIVERSEORDER>
11
52
5
70
58
18
4
13
60
75
54
12
57
26
17
67
38
10
63
36
53
77
84
65
79
28
42
32
6
15
72
20
3
33
39
71
56
45
74
16
82
66
24
55
61
27
44
35
9
80
34
46
73
37
25
8
64
22
47
68
78
50
76
81
19
69
1
30
43
85
48
21
23
7
14
62
31
29
2
59
49
41
83
51
40

> <PUBCHEM_MMFF94_PARTIAL_CHARGES>
36
1 -0.36
10 0.08
11 -0.14
12 -0.15
13 -0.15
14 0.54
15 -0.15
16 -0.05
17 -0.15
18 -0.15
19 0.08
2 -0.57
20 -0.3
21 0.14
22 -0.15
23 -0.15
24 0.28
25 0.28
28 0.15
29 0.15
3 -0.36
30 0.15
31 0.37
32 0.15
33 0.15
34 0.15
35 0.15
36 0.15
37 0.15
38 0.27
4 -0.73
5 0.3
6 -0.71
7 0.09
8 0.05
9 0.44

> <PUBCHEM_EFFECTIVE_ROTOR_COUNT>
7

> <PUBCHEM_PHARMACOPHORE_FEATURES>
9
1 1 acceptor
1 2 acceptor
1 3 acceptor
1 4 donor
1 5 donor
1 6 acceptor
5 5 6 16 20 21 rings
6 11 17 18 19 22 23 rings
6 7 8 10 12 13 15 rings

> <PUBCHEM_HEAVY_ATOM_COUNT>
25

> <PUBCHEM_ATOM_DEF_STEREO_COUNT>
0

> <PUBCHEM_ATOM_UDEF_STEREO_COUNT>
0

> <PUBCHEM_BOND_DEF_STEREO_COUNT>
0

> <PUBCHEM_BOND_UDEF_STEREO_COUNT>
0

> <PUBCHEM_ISOTOPIC_ATOM_COUNT>
0

> <PUBCHEM_COMPONENT_COUNT>
1

> <PUBCHEM_CACTVS_TAUTO_COUNT>
7

> <PUBCHEM_CONFORMER_ID>
0562B20E0000000B

> <PUBCHEM_MMFF94_ENERGY>
79.7551

> <PUBCHEM_FEATURE_SELFOVERLAP>
45.673

> <PUBCHEM_SHAPE_FINGERPRINT>
10638233 991 9223235144016687511
11719270 70 18413392034218845583
11756154 67 18193842527347917598
11796584 16 17168144585186958177
12236239 1 18113898277567627889
12422481 6 18269281170847593213
12596602 18 17561084717521124122
12623949 98 18200318698116672806
12839892 36 18272088271251838455
12892183 10 18272363127958356092
12925494 130 17910952444247832913
13073987 5 18342176643863968752
13140716 1 18053661666041286332
13150687 139 17751951184183457700
13533116 47 18409732867673275776
13551218 46 18410573968198591199
1361 2 18408605851001875994
13782708 43 16660935486491054395
13862211 1 18410855503800482463
13914758 101 17531239540349468981
14211702 104 18114472253076781459
14251740 57 18339928113147993710
14347332 77 18260546715080788101
14617045 38 18412266160107679992
15510800 12 17822302257911182274
16992610 120 18119818156997197156
17349148 13 18334021583553350229
17492 89 18266456495627674658
17857418 61 18409729595045307197
1813 80 17385726859772178604
1979834 28 17918280826806881982
20397935 70 18409732850636084670
21130935 74 18342744005392420251
21197605 99 18411701023658053394
21267235 1 18409733933263002078
21279426 13 18261951830700455725
21315764 119 13840253767430344499
21682296 61 18336834069772932459
21792934 111 18340200787731193337
2215653 11 12107788510049145419
23522609 53 18120408495060168429
23559900 14 16733551653647406317
3004659 81 18041002847443104948
3411729 13 17558826437145985256
3680242 22 18340780281698081155
3886686 26 17407124253279983178
465052 167 18114471149090220625
5104073 3 18200595787161296569
8509985 295 18410859892640127460

> <PUBCHEM_SHAPE_MULTIPOLES>
481.94
15.77
2.84
1.05
10.96
1.15
0.03
5.85
5.75
-2.6
-0.29
-0.79
-0.12
-0.36

> <PUBCHEM_SHAPE_SELFOVERLAP>
1047.155

> <PUBCHEM_SHAPE_VOLUME>
264

> <PUBCHEM_COORDINATE_TYPE>
2
5
10

$$$$
118662981
  -OEChem-05102415143D

 42 44  0     0  0  0  0  0  0999 V2000
    5.2641   -2.3195    0.7693 O   0  0  0  0  0  0  0  0  0  0  0  0
    0.7156    2.4761   -0.8859 O   0  0  0  0  0  0  0  0  0  0  0  0
    1.2351    1.2540    1.0151 N   0  0  0  0  0  0  0  0  0  0  0  0
   -0.0511   -1.1850   -0.2176 N   0  0  0  0  0  0  0  0  0  0  0  0
   -7.0101   -0.7453    0.3419 N   0  0  0  0  0  0  0  0  0  0  0  0
   -6.7131   -1.8142   -0.4167 N   0  0  0  0  0  0  0  0  0  0  0  0
   -0.9568    1.0749   -0.0267 C   0  0  0  0  0  0  0  0  0  0  0  0
   -3.5427    0.0281   -0.0427 C   0  0  0  0  0  0  0  0  0  0  0  0
    2.5815    1.7549    1.1739 C   0  0  0  0  0  0  0  0  0  0  0  0
   -1.1509   -0.3029   -0.1250 C   0  0  0  0  0  0  0  0  0  0  0  0
    3.5844    0.9138    0.4386 C   0  0  0  0  0  0  0  0  0  0  0  0
   -2.4439   -0.8263   -0.1329 C   0  0  0  0  0  0  0  0  0  0  0  0
   -2.0557    1.9293    0.0636 C   0  0  0  0  0  0  0  0  0  0  0  0
    0.3811    1.6532   -0.0176 C   0  0  0  0  0  0  0  0  0  0  0  0
   -3.3487    1.4059    0.0556 C   0  0  0  0  0  0  0  0  0  0  0  0
   -4.8740   -0.5102   -0.0494 C   0  0  0  0  0  0  0  0  0  0  0  0
    3.9636   -0.3264    0.9520 C   0  0  0  0  0  0  0  0  0  0  0  0
    4.1373    1.3723   -0.7571 C   0  0  0  0  0  0  0  0  0  0  0  0
    4.8958   -1.1082    0.2695 C   0  0  0  0  0  0  0  0  0  0  0  0
   -5.9432    0.0673    0.5908 C   0  0  0  0  0  0  0  0  0  0  0  0
    5.0697    0.5907   -1.4394 C   0  0  0  0  0  0  0  0  0  0  0  0
   -5.4069   -1.6652   -0.6526 C   0  0  0  0  0  0  0  0  0  0  0  0
    5.4488   -0.6497   -0.9261 C   0  0  0  0  0  0  0  0  0  0  0  0
    6.2201   -3.0676    0.0193 C   0  0  0  0  0  0  0  0  0  0  0  0
    2.8099    1.7589    2.2458 H   0  0  0  0  0  0  0  0  0  0  0  0
    2.6202    2.7966    0.8348 H   0  0  0  0  0  0  0  0  0  0  0  0
   -2.5823   -1.9034   -0.2038 H   0  0  0  0  0  0  0  0  0  0  0  0
   -1.9192    3.0051    0.1396 H   0  0  0  0  0  0  0  0  0  0  0  0
   -4.1819    2.1016    0.1150 H   0  0  0  0  0  0  0  0  0  0  0  0
    0.9006    0.5779    1.6960 H   0  0  0  0  0  0  0  0  0  0  0  0
    3.5352   -0.6893    1.8831 H   0  0  0  0  0  0  0  0  0  0  0  0
    3.8500    2.3359   -1.1693 H   0  0  0  0  0  0  0  0  0  0  0  0
   -6.0536    0.9565    1.1962 H   0  0  0  0  0  0  0  0  0  0  0  0
    5.4994    0.9486   -2.3706 H   0  0  0  0  0  0  0  0  0  0  0  0
   -4.9055   -2.4076   -1.2576 H   0  0  0  0  0  0  0  0  0  0  0  0
    6.1771   -1.2051   -1.5072 H   0  0  0  0  0  0  0  0  0  0  0  0
   -0.2113   -2.1812   -0.2898 H   0  0  0  0  0  0  0  0  0  0  0  0
    0.8957   -0.8315   -0.2283 H   0  0  0  0  0  0  0  0  0  0  0  0
   -7.9649   -0.6321    0.6586 H   0  0  0  0  0  0  0  0  0  0  0  0
    5.8331   -3.3392   -0.9687 H   0  0  0  0  0  0  0  0  0  0  0  0
    7.1817   -2.5465   -0.0402 H   0  0  0  0  0  0  0  0  0  0  0  0
    6.3962   -4.0024    0.5615 H   0  0  0  0  0  0  0  0  0  0  0  0
  1 19  1  0  0  0  0
  1 24  1  0  0  0  0
  2 14  2  0  0  0  0
  3  9  1  0  0  0  0
  3 14  1  0  0  0  0
  3 30  1  0  0  0  0
  4 10  1  0  0  0  0
  4 37  1  0  0  0  0
  4 38  1  0  0  0  0
  5  6  1  0  0  0  0
  5 20  1  0  0  0  0
  5 39  1  0  0  0  0
  6 22  2  0  0  0  0
  7 10  2  0  0  0  0
  7 13  1  0  0  0  0
  7 14  1  0  0  0  0
  8 12  2  0  0  0  0
  8 15  1  0  0  0  0
  8 16  1  0  0  0  0
  9 11  1  0  0  0  0
  9 25  1  0  0  0  0
  9 26  1  0  0  0  0
 10 12  1  0  0  0  0
 11 17  2  0  0  0  0
 11 18  1  0  0  0  0
 12 27  1  0  0  0  0
 13 15  2  0  0  0  0
 13 28  1  0  0  0  0
 15 29  1  0  0  0  0
 16 20  2  0  0  0  0
 16 22  1  0  0  0  0
 17 19  1  0  0  0  0
 17 31  1  0  0  0  0
 18 21  2  0  0  0  0
 18 32  1  0  0  0  0
 19 23  2  0  0  0  0
 20 33  1  0  0  0  0
 21 23  1  0  0  0  0
 21 34  1  0  0  0  0
 22 35  1  0  0  0  0
 23 36  1  0  0  0  0
 24 40  1  0  0  0  0
 24 41  1  0  0  0  0
 24 42  1  0  0  0  0
M  END
> <PUBCHEM_COMPOUND_CID>
118662981

> <PUBCHEM_CONFORMER_RMSD>
0.8

> <PUBCHEM_CONFORMER_DIVERSEORDER>
1
37
26
46
14
33
29
32
23
6
53
13
36
18
40
35
2
12
21
31
44
50
24
27
39
11
38
42
43
17
49
48
28
9
5
25
19
34
45
4
52
20
8
47
3
51
41
30
22
10
15
7
16

> <PUBCHEM_MMFF94_PARTIAL_CHARGES>
37
1 -0.36
10 0.1
11 -0.14
12 -0.15
13 -0.15
14 0.54
15 -0.15
16 -0.05
17 -0.15
18 -0.15
19 0.08
2 -0.57
20 -0.3
21 -0.15
22 0.14
23 -0.15
24 0.28
27 0.15
28 0.15
29 0.15
3 -0.73
30 0.37
31 0.15
32 0.15
33 0.15
34 0.15
35 0.15
36 0.15
37 0.4
38 0.4
39 0.27
4 -0.9
5 0.3
6 -0.71
7 0.09
8 0.05
9 0.44

> <PUBCHEM_EFFECTIVE_ROTOR_COUNT>
6

> <PUBCHEM_PHARMACOPHORE_FEATURES>
10
1 1 acceptor
1 2 acceptor
1 3 donor
1 4 cation
1 4 donor
1 5 donor
1 6 acceptor
5 5 6 16 20 22 rings
6 11 17 18 19 21 23 rings
6 7 8 10 12 13 15 rings

> <PUBCHEM_HEAVY_ATOM_COUNT>
24

> <PUBCHEM_ATOM_DEF_STEREO_COUNT>
0

> <PUBCHEM_ATOM_UDEF_STEREO_COUNT>
0

> <PUBCHEM_BOND_DEF_STEREO_COUNT>
0

> <PUBCHEM_BOND_UDEF_STEREO_COUNT>
0

> <PUBCHEM_ISOTOPIC_ATOM_COUNT>
0

> <PUBCHEM_COMPONENT_COUNT>
1

> <PUBCHEM_CACTVS_TAUTO_COUNT>
30

> <PUBCHEM_CONFORMER_ID>
0712A74500000001

> <PUBCHEM_MMFF94_ENERGY>
78.2207

> <PUBCHEM_FEATURE_SELFOVERLAP>
50.747

> <PUBCHEM_SHAPE_FINGERPRINT>
10 15 11383828299118821951
10730089 47 18411980252139365402
11524674 6 16487257694903837223
11578080 2 16880741952518421479
12166972 35 18040157318189485093
12422481 6 16988848332099771823
12616971 3 16630517457963283325
13073987 5 18273492360527855328
13533116 47 18410855494767748000
13551218 46 18342173371404447783
13685833 64 18343300370891392696
13782708 43 17489021678081966407
13862211 1 18412824703139896983
13955234 65 18057034925267362384
14211702 104 18125158484086620255
14216079 64 18412824694771631935
14251764 18 18131069363738400592
14347332 77 18410008814985235765
14528608 73 12829487056090122185
15183329 4 18130795563831084369
15348495 7 15410607142561615471
15475509 35 18273207583032173050
1813 80 17967807271333759860
18222031 100 18187077390730198041
1979834 28 16630530601069332574
20028762 73 18131067160225597175
21130935 74 18271243941285825155
21150785 3 17749392614943492293
21267235 1 18410578370355414426
21304303 94 17676205775989422946
21344244 181 17967257493923736410
21521721 280 8574435361527216373
21641784 216 15357967941587473533
21682296 61 18411703162604079139
22950370 63 18409169904571598168
23522609 53 18125191352944088873
23559900 14 18115589391281494609
23569943 247 18337953377227210635
268830 7 10951763032968207264
270888 7 8934702406599363754
2748736 6 8862946056824269003
3004659 81 18260830363616496178
34797466 226 16225770747994230221
397830 11 14189000258932613391
4073 2 18124030397555295976
439807 62 18335985289576897387
46194498 28 17095805516177847988
465052 167 18272934929585712460
5104073 3 17846776282812338856
54039377 194 18338802196515306846
543368 44 8286200557311688331
59755656 215 18413670202006960591
86090 222 16199052564442999044
960060 61 18113903784089923092

> <PUBCHEM_SHAPE_MULTIPOLES>
462.25
17.86
2.56
0.99
8.57
0.7
-0.05
12.92
-0.9
-2.45
0.02
-1.06
-0.18
-0.87

> <PUBCHEM_SHAPE_SELFOVERLAP>
1007.202

> <PUBCHEM_SHAPE_VOLUME>
252.5

> <PUBCHEM_COORDINATE_TYPE>
2
5
10

$$$$
118662920
  -OEChem-05102415143D

 44 46  0     0  0  0  0  0  0999 V2000
   -0.6609    1.5434    0.8658 O   0  0  0  0  0  0  0  0  0  0  0  0
   -1.0610    0.1558   -2.0340 O   0  0  0  0  0  0  0  0  0  0  0  0
   -5.8544    1.6378   -0.0902 O   0  0  0  0  0  0  0  0  0  0  0  0
   -1.2127   -1.6082   -0.5367 N   0  0  0  0  0  0  0  0  0  0  0  0
    6.9745   -0.3483    0.8620 N   0  0  0  0  0  0  0  0  0  0  0  0
    7.0064    0.9775    0.6439 N   0  0  0  0  0  0  0  0  0  0  0  0
    1.3086    0.8286   -0.2597 C   0  0  0  0  0  0  0  0  0  0  0  0
    0.8672   -0.3748   -0.8098 C   0  0  0  0  0  0  0  0  0  0  0  0
    3.5532   -0.0555   -0.1266 C   0  0  0  0  0  0  0  0  0  0  0  0
    2.6515    0.9882    0.0820 C   0  0  0  0  0  0  0  0  0  0  0  0
    1.7688   -1.4186   -1.0183 C   0  0  0  0  0  0  0  0  0  0  0  0
   -2.5927   -1.9408   -0.8083 C   0  0  0  0  0  0  0  0  0  0  0  0
    3.1119   -1.2588   -0.6768 C   0  0  0  0  0  0  0  0  0  0  0  0
   -0.5293   -0.5686   -1.1756 C   0  0  0  0  0  0  0  0  0  0  0  0
    4.9360    0.1088    0.2244 C   0  0  0  0  0  0  0  0  0  0  0  0
   -3.5379   -1.1884    0.0832 C   0  0  0  0  0  0  0  0  0  0  0  0
    0.3639    1.9622   -0.0257 C   0  0  0  0  0  0  0  0  0  0  0  0
   -4.2652   -0.1113   -0.4232 C   0  0  0  0  0  0  0  0  0  0  0  0
   -3.6886   -1.5659    1.4176 C   0  0  0  0  0  0  0  0  0  0  0  0
    5.7574   -0.9166    0.6253 C   0  0  0  0  0  0  0  0  0  0  0  0
    5.7583    1.2509    0.2547 C   0  0  0  0  0  0  0  0  0  0  0  0
   -5.1432    0.5883    0.4047 C   0  0  0  0  0  0  0  0  0  0  0  0
   -4.5663   -0.8662    2.2456 C   0  0  0  0  0  0  0  0  0  0  0  0
   -5.2937    0.2109    1.7390 C   0  0  0  0  0  0  0  0  0  0  0  0
   -5.6518    1.9695   -1.4632 C   0  0  0  0  0  0  0  0  0  0  0  0
    2.9864    1.9279    0.5161 H   0  0  0  0  0  0  0  0  0  0  0  0
   -2.7103   -3.0192   -0.6520 H   0  0  0  0  0  0  0  0  0  0  0  0
   -2.8082   -1.7467   -1.8654 H   0  0  0  0  0  0  0  0  0  0  0  0
    1.4423   -2.3600   -1.4531 H   0  0  0  0  0  0  0  0  0  0  0  0
    3.7894   -2.0876   -0.8662 H   0  0  0  0  0  0  0  0  0  0  0  0
    0.8695    2.8210    0.4290 H   0  0  0  0  0  0  0  0  0  0  0  0
   -0.0810    2.3025   -0.9665 H   0  0  0  0  0  0  0  0  0  0  0  0
   -0.7260   -2.1564    0.1671 H   0  0  0  0  0  0  0  0  0  0  0  0
   -4.1089    0.1412   -1.4666 H   0  0  0  0  0  0  0  0  0  0  0  0
   -3.1270   -2.4033    1.8233 H   0  0  0  0  0  0  0  0  0  0  0  0
    5.6030   -1.9767    0.7721 H   0  0  0  0  0  0  0  0  0  0  0  0
    5.5087    2.2736    0.0084 H   0  0  0  0  0  0  0  0  0  0  0  0
   -4.6835   -1.1599    3.2846 H   0  0  0  0  0  0  0  0  0  0  0  0
   -5.9762    0.7519    2.3887 H   0  0  0  0  0  0  0  0  0  0  0  0
    7.8229   -0.8037    1.1746 H   0  0  0  0  0  0  0  0  0  0  0  0
   -1.2683    2.2947    0.9761 H   0  0  0  0  0  0  0  0  0  0  0  0
   -5.9652    1.1547   -2.1248 H   0  0  0  0  0  0  0  0  0  0  0  0
   -4.6207    2.2866   -1.6530 H   0  0  0  0  0  0  0  0  0  0  0  0
   -6.2953    2.8268   -1.6864 H   0  0  0  0  0  0  0  0  0  0  0  0
  1 17  1  0  0  0  0
  1 41  1  0  0  0  0
  2 14  2  0  0  0  0
  3 22  1  0  0  0  0
  3 25  1  0  0  0  0
  4 12  1  0  0  0  0
  4 14  1  0  0  0  0
  4 33  1  0  0  0  0
  5  6  1  0  0  0  0
  5 20  1  0  0  0  0
  5 40  1  0  0  0  0
  6 21  2  0  0  0  0
  7  8  2  0  0  0  0
  7 10  1  0  0  0  0
  7 17  1  0  0  0  0
  8 11  1  0  0  0  0
  8 14  1  0  0  0  0
  9 10  2  0  0  0  0
  9 13  1  0  0  0  0
  9 15  1  0  0  0  0
 10 26  1  0  0  0  0
 11 13  2  0  0  0  0
 11 29  1  0  0  0  0
 12 16  1  0  0  0  0
 12 27  1  0  0  0  0
 12 28  1  0  0  0  0
 13 30  1  0  0  0  0
 15 20  2  0  0  0  0
 15 21  1  0  0  0  0
 16 18  2  0  0  0  0
 16 19  1  0  0  0  0
 17 31  1  0  0  0  0
 17 32  1  0  0  0  0
 18 22  1  0  0  0  0
 18 34  1  0  0  0  0
 19 23  2  0  0  0  0
 19 35  1  0  0  0  0
 20 36  1  0  0  0  0
 21 37  1  0  0  0  0
 22 24  2  0  0  0  0
 23 24  1  0  0  0  0
 23 38  1  0  0  0  0
 24 39  1  0  0  0  0
 25 42  1  0  0  0  0
 25 43  1  0  0  0  0
 25 44  1  0  0  0  0
M  END
> <PUBCHEM_COMPOUND_CID>
118662920

> <PUBCHEM_CONFORMER_RMSD>
0.8

> <PUBCHEM_CONFORMER_DIVERSEORDER>
1
90
84
97
20
87
77
65
92
69
56
76
27
47
31
82
83
94
63
25
43
64
42
89
75
29
34
12
5
32
95
11
81
78
35
73
100
18
67
93
54
57
86
10
36
59
38
13
28
88
23
60
62
9
44
16
48
26
53
68
79
21
71
45
91
55
96
22
3
52
74
58
85
8
2
40
7
19
6
49
72
66
17
70
24
15
39
50
51
99
33
37
14
4
41
98
46
30
61
80

> <PUBCHEM_MMFF94_PARTIAL_CHARGES>
37
1 -0.68
10 -0.15
11 -0.15
12 0.44
13 -0.15
14 0.54
15 -0.05
16 -0.14
17 0.42
18 -0.15
19 -0.15
2 -0.57
20 -0.3
21 0.14
22 0.08
23 -0.15
24 -0.15
25 0.28
26 0.15
29 0.15
3 -0.36
30 0.15
33 0.37
34 0.15
35 0.15
36 0.15
37 0.15
38 0.15
39 0.15
4 -0.73
40 0.27
41 0.4
5 0.3
6 -0.71
7 -0.14
8 0.09
9 0.05

> <PUBCHEM_EFFECTIVE_ROTOR_COUNT>
7

> <PUBCHEM_PHARMACOPHORE_FEATURES>
10
1 1 acceptor
1 1 donor
1 2 acceptor
1 3 acceptor
1 4 donor
1 5 donor
1 6 acceptor
5 5 6 15 20 21 rings
6 16 18 19 22 23 24 rings
6 7 8 9 10 11 13 rings

> <PUBCHEM_HEAVY_ATOM_COUNT>
25

> <PUBCHEM_ATOM_DEF_STEREO_COUNT>
0

> <PUBCHEM_ATOM_UDEF_STEREO_COUNT>
0

> <PUBCHEM_BOND_DEF_STEREO_COUNT>
0

> <PUBCHEM_BOND_UDEF_STEREO_COUNT>
0

> <PUBCHEM_ISOTOPIC_ATOM_COUNT>
0

> <PUBCHEM_COMPONENT_COUNT>
1

> <PUBCHEM_CACTVS_TAUTO_COUNT>
9

> <PUBCHEM_CONFORMER_ID>
0712A70800000001

> <PUBCHEM_MMFF94_ENERGY>
69.7111

> <PUBCHEM_FEATURE_SELFOVERLAP>
50.748

> <PUBCHEM_SHAPE_FINGERPRINT>
10 15 18408604777496772336
10554248 39 16917071045250658676
10591671 39 11167934801284826568
10906281 52 18270413796989791102
11089746 13 16343980321349444928
12422481 6 18336260240873183052
12507557 5 17988649622977541427
12633257 1 18339366369589720047
12895837 130 15195298512574081971
14251764 18 18342176704420414807
14466204 15 18410012117941264641
14790565 3 17985267619610495316
14856354 85 16443353078535597931
15142383 8 17749383741788829252
15188451 53 17604721113551655043
15238133 3 18335430083802627348
15348495 7 17968381250905011424
15537594 2 14345787253977806393
1601671 61 17917997204572947358
17093844 174 17967525796578016833
17780758 139 17095243631550076593
17980427 23 16558479651177129657
200 152 12901542442699522022
20281389 69 18342737442127945144
21033648 29 18337685109637905079
21150785 3 10663813101264493810
21298829 104 17774731849134493345
21315763 191 16226054396266824187
21421861 104 18263638481727946242
23198884 109 14045741521331132660
2838139 119 15913331303352754018
350125 39 18272649091408207760
3737641 26 15647320897478000202
4169191 19 17988924530744067600
4325135 7 11743839184009964231
484989 97 9511162084775900116
4938544 92 16515958186736012005
5104073 3 18198624521984973010
6009941 240 17749388139993641145
6328613 192 17845936346423659152
7226269 152 18342458136173107313
999808 66 10809346611742339977

> <PUBCHEM_SHAPE_MULTIPOLES>
481.94
17.04
1.92
1.53
11.47
0.27
0.21
3.57
6.28
-1.55
-0.22
-2
-0.25
1.37

> <PUBCHEM_SHAPE_SELFOVERLAP>
1047.238

> <PUBCHEM_SHAPE_VOLUME>
264.8

> <PUBCHEM_COORDINATE_TYPE>
2
5
10

$$$$
118663075
  -OEChem-05102415143D

 45 47  0     0  0  0  0  0  0999 V2000
   -5.7106    1.2158    1.1433 S   0  0  0  0  0  0  0  0  0  0  0  0
    0.9951   -1.7060   -0.1515 O   0  0  0  0  0  0  0  0  0  0  0  0
   -0.6383    1.8096   -1.1620 O   0  0  0  0  0  0  0  0  0  0  0  0
   -6.1064    0.8279    2.4900 O   0  0  0  0  0  0  0  0  0  0  0  0
   -5.0375    2.4888    0.9263 O   0  0  0  0  0  0  0  0  0  0  0  0
   -0.6828   -0.4461   -1.6980 N   0  0  0  0  0  0  0  0  0  0  0  0
   -7.0788    1.1381    0.1228 N   0  0  0  0  0  0  0  0  0  0  0  0
    7.1469   -0.3487    1.5222 N   0  0  0  0  0  0  0  0  0  0  0  0
    7.6169    0.5510    0.6414 N   0  0  0  0  0  0  0  0  0  0  0  0
   -3.0227   -0.7852   -1.0842 C   0  0  0  0  0  0  0  0  0  0  0  0
   -2.0446   -0.4770   -2.1808 C   0  0  0  0  0  0  0  0  0  0  0  0
    1.3250    0.5836   -0.7866 C   0  0  0  0  0  0  0  0  0  0  0  0
   -4.7211   -0.0558    0.4715 C   0  0  0  0  0  0  0  0  0  0  0  0
   -3.8123    0.2314   -0.5471 C   0  0  0  0  0  0  0  0  0  0  0  0
    3.9875    0.3828    0.0219 C   0  0  0  0  0  0  0  0  0  0  0  0
    1.8081   -0.6185   -0.2696 C   0  0  0  0  0  0  0  0  0  0  0  0
   -0.0614    0.7100   -1.2143 C   0  0  0  0  0  0  0  0  0  0  0  0
   -3.1418   -2.0890   -0.6028 C   0  0  0  0  0  0  0  0  0  0  0  0
    3.1395   -0.7189    0.1345 C   0  0  0  0  0  0  0  0  0  0  0  0
    2.1731    1.6852   -0.8993 C   0  0  0  0  0  0  0  0  0  0  0  0
    3.5044    1.5850   -0.4950 C   0  0  0  0  0  0  0  0  0  0  0  0
   -4.8401   -1.3595    0.9531 C   0  0  0  0  0  0  0  0  0  0  0  0
    5.3581    0.2798    0.4378 C   0  0  0  0  0  0  0  0  0  0  0  0
   -4.0504   -2.3761    0.4159 C   0  0  0  0  0  0  0  0  0  0  0  0
    5.7999   -0.5475    1.4413 C   0  0  0  0  0  0  0  0  0  0  0  0
    6.5196    0.9314   -0.0181 C   0  0  0  0  0  0  0  0  0  0  0  0
    1.5749   -2.8921    0.3873 C   0  0  0  0  0  0  0  0  0  0  0  0
   -2.1031   -1.2445   -2.9610 H   0  0  0  0  0  0  0  0  0  0  0  0
   -2.2790    0.4817   -2.6578 H   0  0  0  0  0  0  0  0  0  0  0  0
   -3.7172    1.2437   -0.9313 H   0  0  0  0  0  0  0  0  0  0  0  0
   -0.1611   -1.3159   -1.7420 H   0  0  0  0  0  0  0  0  0  0  0  0
   -2.5314   -2.8891   -1.0133 H   0  0  0  0  0  0  0  0  0  0  0  0
    3.5573   -1.6405    0.5234 H   0  0  0  0  0  0  0  0  0  0  0  0
    1.8181    2.6300   -1.3028 H   0  0  0  0  0  0  0  0  0  0  0  0
    4.1432    2.4597   -0.5890 H   0  0  0  0  0  0  0  0  0  0  0  0
   -5.5457   -1.6073    1.7410 H   0  0  0  0  0  0  0  0  0  0  0  0
   -4.1437   -3.3915    0.7898 H   0  0  0  0  0  0  0  0  0  0  0  0
    5.3025   -1.2419    2.1044 H   0  0  0  0  0  0  0  0  0  0  0  0
    6.6210    1.6665   -0.8043 H   0  0  0  0  0  0  0  0  0  0  0  0
   -7.9511    0.7705    0.5220 H   0  0  0  0  0  0  0  0  0  0  0  0
   -7.2187    1.9049   -0.5464 H   0  0  0  0  0  0  0  0  0  0  0  0
    7.8034   -0.7901    2.1539 H   0  0  0  0  0  0  0  0  0  0  0  0
    1.9067   -2.7482    1.4213 H   0  0  0  0  0  0  0  0  0  0  0  0
    2.3675   -3.2851   -0.2588 H   0  0  0  0  0  0  0  0  0  0  0  0
    0.7852   -3.6505    0.4130 H   0  0  0  0  0  0  0  0  0  0  0  0
  1  4  2  0  0  0  0
  1  5  2  0  0  0  0
  1  7  1  0  0  0  0
  1 13  1  0  0  0  0
  2 16  1  0  0  0  0
  2 27  1  0  0  0  0
  3 17  2  0  0  0  0
  6 11  1  0  0  0  0
  6 17  1  0  0  0  0
  6 31  1  0  0  0  0
  7 40  1  0  0  0  0
  7 41  1  0  0  0  0
  8  9  1  0  0  0  0
  8 25  1  0  0  0  0
  8 42  1  0  0  0  0
  9 26  2  0  0  0  0
 10 11  1  0  0  0  0
 10 14  2  0  0  0  0
 10 18  1  0  0  0  0
 11 28  1  0  0  0  0
 11 29  1  0  0  0  0
 12 16  2  0  0  0  0
 12 17  1  0  0  0  0
 12 20  1  0  0  0  0
 13 14  1  0  0  0  0
 13 22  2  0  0  0  0
 14 30  1  0  0  0  0
 15 19  2  0  0  0  0
 15 21  1  0  0  0  0
 15 23  1  0  0  0  0
 16 19  1  0  0  0  0
 18 24  2  0  0  0  0
 18 32  1  0  0  0  0
 19 33  1  0  0  0  0
 20 21  2  0  0  0  0
 20 34  1  0  0  0  0
 21 35  1  0  0  0  0
 22 24  1  0  0  0  0
 22 36  1  0  0  0  0
 23 25  2  0  0  0  0
 23 26  1  0  0  0  0
 24 37  1  0  0  0  0
 25 38  1  0  0  0  0
 26 39  1  0  0  0  0
 27 43  1  0  0  0  0
 27 44  1  0  0  0  0
 27 45  1  0  0  0  0
M  END
> <PUBCHEM_COMPOUND_CID>
118663075

> <PUBCHEM_CONFORMER_RMSD>
0.8

> <PUBCHEM_CONFORMER_DIVERSEORDER>
11
79
14
94
192
181
212
254
30
5
109
257
249
148
92
69
70
147
189
162
105
107
146
182
156
106
54
211
9
89
164
143
198
53
231
201
85
134
6
4
263
91
101
65
40
22
261
167
225
58
159
64
118
112
240
267
95
113
75
227
191
200
128
175
238
193
127
36
74
246
252
161
155
241
15
235
10
24
245
63
7
196
226
27
210
90
60
180
222
239
133
93
50
247
3
203
77
56
160
138
230
170
68
51
220
224
98
213
144
130
119
259
21
234
174
251
73
45
32
214
114
190
57
195
135
233
207
236
140
46
218
149
81
19
209
120
169
256
18
171
221
262
206
80
39
255
28
97
33
44
179
185
139
66
102
29
242
31
216
122
186
199
132
177
268
244
55
99
17
62
48
137
163
187
110
42
88
166
188
108
123
176
204
260
217
104
168
253
34
26
86
219
52
202
71
229
173
124
37
178
121
103
115
35
154
23
72
243
1
172
197
194
38
215
136
82
248
125
165
269
237
49
157
228
111
184
8
84
116
126
153
76
250
43
232
78
2
100
151
265
87
264
208
47
142
223
205
141
145
16
150
258
13
96
59
183
20
83
41
25
158
117
266
152
129
12
61
67
131

> <PUBCHEM_MMFF94_PARTIAL_CHARGES>
40
1 1.45
10 -0.14
11 0.44
12 0.09
13 -0.01
14 -0.15
15 0.05
16 0.08
17 0.54
18 -0.15
19 -0.15
2 -0.36
20 -0.15
21 -0.15
22 -0.15
23 -0.05
24 -0.15
25 -0.3
26 0.14
27 0.28
3 -0.57
30 0.15
31 0.37
32 0.15
33 0.15
34 0.15
35 0.15
36 0.15
37 0.15
38 0.15
39 0.15
4 -0.65
40 0.42
41 0.42
42 0.27
5 -0.65
6 -0.73
7 -0.98
8 0.3
9 -0.71

> <PUBCHEM_EFFECTIVE_ROTOR_COUNT>
7

> <PUBCHEM_PHARMACOPHORE_FEATURES>
11
1 2 acceptor
1 3 acceptor
1 4 acceptor
1 5 acceptor
1 6 donor
1 7 donor
1 8 donor
1 9 acceptor
5 8 9 23 25 26 rings
6 10 13 14 18 22 24 rings
6 12 15 16 19 20 21 rings

> <PUBCHEM_HEAVY_ATOM_COUNT>
27

> <PUBCHEM_ATOM_DEF_STEREO_COUNT>
0

> <PUBCHEM_ATOM_UDEF_STEREO_COUNT>
0

> <PUBCHEM_BOND_DEF_STEREO_COUNT>
0

> <PUBCHEM_BOND_UDEF_STEREO_COUNT>
0

> <PUBCHEM_ISOTOPIC_ATOM_COUNT>
0

> <PUBCHEM_COMPONENT_COUNT>
1

> <PUBCHEM_CACTVS_TAUTO_COUNT>
9

> <PUBCHEM_CONFORMER_ID>
0712A7A30000000B

> <PUBCHEM_MMFF94_ENERGY>
57.6436

> <PUBCHEM_FEATURE_SELFOVERLAP>
55.841

> <PUBCHEM_SHAPE_FINGERPRINT>
10 15 18187367627287003909
10554248 39 13326581765700041064
10674148 151 12612752415841688885
10906281 52 18338521958472606430
11036077 4 18333733550768473699
11089746 13 17775560962031233485
11135609 201 16414936153972642603
11315181 36 18340480170974298567
12422481 6 18412824655826932086
12616971 3 17967535704824898052
12633257 1 18113338635018411039
13103583 49 18335142024588336575
13668630 136 13190339054433439968
13690498 29 8070031043610150579
13782708 43 14491015097009234416
13941219 33 17968092001953196227
14251764 18 18334575775883773567
14849402 71 18190745430683502204
14856354 85 18335423516492111983
14931854 50 10663822945181752465
14950920 106 18261958578046422851
15064986 96 18130797707057767215
15142383 8 16988560200493340328
15238133 3 18131078155262402260
15461852 350 17131547336419625469
16110190 28 18335139803816022439
16994733 274 16558169623838123290
17780758 139 18335137618231478561
1813 80 16443358559150998303
18643901 69 12251905902371626401
18927931 339 15213294231943881415
20281389 69 16558750130857934578
21150785 3 11169917173953218834
21267235 1 18113892751052019602
21307412 95 11603118244691610729
21403212 168 18186800245934531469
21756936 100 17988920097989509095
21814621 53 16916786323289721398
22288116 15 8430311359540334408
23522609 53 17896906376713906580
23576562 1 11742970604178479232
2838139 119 12751244722284297610
3178227 256 17894911832930408160
392239 28 18113899376910216750
4093350 32 17632300030403734742
465052 167 17240199929010104054
4938544 92 17989202676957164727
5104073 3 18337105795310758640
54039377 194 11025807479098940961
6009941 240 15913328035499885078
7226269 152 17274824683507367384
999808 66 16153426146950957651

> <PUBCHEM_SHAPE_MULTIPOLES>
516.1
18.96
2.27
1.6
9.37
0.77
-0.09
-4.68
-11.49
-1.96
-0.18
-1.41
-0.2
-1.69

> <PUBCHEM_SHAPE_SELFOVERLAP>
1108.629

> <PUBCHEM_SHAPE_VOLUME>
286.4

> <PUBCHEM_COORDINATE_TYPE>
2
5
10

$$$$
