46183900
  -OEChem-05102415033D

 39 41  0     1  0  0  0  0  0999 V2000
    1.3332   -0.7839   -1.0593 O   0  0  0  0  0  0  0  0  0  0  0  0
   -0.0055    0.6689    0.2161 N   0  0  0  0  0  0  0  0  0  0  0  0
    1.6421    3.2816   -0.5025 N   0  0  0  0  0  0  0  0  0  0  0  0
   -6.2830   -0.6864    0.0182 N   0  0  0  0  0  0  0  0  0  0  0  0
    2.4099    1.0083    0.1551 C   0  0  1  0  0  0  0  0  0  0  0  0
    3.6459    0.1277    0.2537 C   0  0  0  0  0  0  0  0  0  0  0  0
    2.6110    2.2229   -0.7741 C   0  0  0  0  0  0  0  0  0  0  0  0
    1.2022    0.1780   -0.3075 C   0  0  0  0  0  0  0  0  0  0  0  0
   -1.2961    0.1770    0.0170 C   0  0  0  0  0  0  0  0  0  0  0  0
    3.9436   -0.5254    1.4497 C   0  0  0  0  0  0  0  0  0  0  0  0
    4.4819   -0.0267   -0.8520 C   0  0  0  0  0  0  0  0  0  0  0  0
   -3.6882    0.3250    0.4321 C   0  0  0  0  0  0  0  0  0  0  0  0
   -2.3836    0.8093    0.6222 C   0  0  0  0  0  0  0  0  0  0  0  0
   -3.8869   -0.8107   -0.3800 C   0  0  0  0  0  0  0  0  0  0  0  0
   -1.4966   -0.9445   -0.7844 C   0  0  0  0  0  0  0  0  0  0  0  0
   -2.7854   -1.4389   -0.9843 C   0  0  0  0  0  0  0  0  0  0  0  0
    5.0774   -1.3330    1.5401 C   0  0  0  0  0  0  0  0  0  0  0  0
    5.6157   -0.8341   -0.7618 C   0  0  0  0  0  0  0  0  0  0  0  0
    5.9135   -1.4873    0.4342 C   0  0  0  0  0  0  0  0  0  0  0  0
   -4.7989    0.9367    1.0249 C   0  0  0  0  0  0  0  0  0  0  0  0
   -5.1976   -1.2629   -0.5458 C   0  0  0  0  0  0  0  0  0  0  0  0
   -6.0546    0.3983    0.7886 C   0  0  0  0  0  0  0  0  0  0  0  0
    2.2103    1.3827    1.1697 H   0  0  0  0  0  0  0  0  0  0  0  0
    3.6119    2.6500   -0.6393 H   0  0  0  0  0  0  0  0  0  0  0  0
    2.5096    1.9325   -1.8262 H   0  0  0  0  0  0  0  0  0  0  0  0
    0.0557    1.4903    0.8137 H   0  0  0  0  0  0  0  0  0  0  0  0
    3.2992   -0.4158    2.3178 H   0  0  0  0  0  0  0  0  0  0  0  0
    4.2702    0.4529   -1.8027 H   0  0  0  0  0  0  0  0  0  0  0  0
   -2.2185    1.6856    1.2472 H   0  0  0  0  0  0  0  0  0  0  0  0
   -0.7068   -1.4880   -1.2833 H   0  0  0  0  0  0  0  0  0  0  0  0
   -2.9256   -2.3158   -1.6124 H   0  0  0  0  0  0  0  0  0  0  0  0
    1.7450    3.6021    0.4595 H   0  0  0  0  0  0  0  0  0  0  0  0
    1.8450    4.0857   -1.0950 H   0  0  0  0  0  0  0  0  0  0  0  0
    5.3088   -1.8422    2.4710 H   0  0  0  0  0  0  0  0  0  0  0  0
    6.2647   -0.9579   -1.6239 H   0  0  0  0  0  0  0  0  0  0  0  0
    6.7957   -2.1169    0.5041 H   0  0  0  0  0  0  0  0  0  0  0  0
   -4.6945    1.8129    1.6575 H   0  0  0  0  0  0  0  0  0  0  0  0
   -5.4204   -2.1322   -1.1584 H   0  0  0  0  0  0  0  0  0  0  0  0
   -6.9397    0.8443    1.2306 H   0  0  0  0  0  0  0  0  0  0  0  0
  1  8  2  0  0  0  0
  2  8  1  0  0  0  0
  2  9  1  0  0  0  0
  2 26  1  0  0  0  0
  3  7  1  0  0  0  0
  3 32  1  0  0  0  0
  3 33  1  0  0  0  0
  4 21  2  0  0  0  0
  4 22  1  0  0  0  0
  5  6  1  0  0  0  0
  5  7  1  0  0  0  0
  5  8  1  0  0  0  0
  5 23  1  0  0  0  0
  6 10  2  0  0  0  0
  6 11  1  0  0  0  0
  7 24  1  0  0  0  0
  7 25  1  0  0  0  0
  9 13  2  0  0  0  0
  9 15  1  0  0  0  0
 10 17  1  0  0  0  0
 10 27  1  0  0  0  0
 11 18  2  0  0  0  0
 11 28  1  0  0  0  0
 12 13  1  0  0  0  0
 12 14  2  0  0  0  0
 12 20  1  0  0  0  0
 13 29  1  0  0  0  0
 14 16  1  0  0  0  0
 14 21  1  0  0  0  0
 15 16  2  0  0  0  0
 15 30  1  0  0  0  0
 16 31  1  0  0  0  0
 17 19  2  0  0  0  0
 17 34  1  0  0  0  0
 18 19  1  0  0  0  0
 18 35  1  0  0  0  0
 19 36  1  0  0  0  0
 20 22  2  0  0  0  0
 20 37  1  0  0  0  0
 21 38  1  0  0  0  0
 22 39  1  0  0  0  0
M  END
> <PUBCHEM_COMPOUND_CID>
46183900

> <PUBCHEM_CONFORMER_RMSD>
0.8

> <PUBCHEM_CONFORMER_DIVERSEORDER>
1
20
5
17
26
3
33
27
18
7
10
30
14
25
21
4
9
8
13
23
11
6
29
31
12
15
16
22
24
32
28
19
2

> <PUBCHEM_MMFF94_PARTIAL_CHARGES>
34
1 -0.57
10 -0.15
11 -0.15
13 -0.15
15 -0.15
16 -0.15
17 -0.15
18 -0.15
19 -0.15
2 -0.55
20 -0.15
21 0.16
22 0.16
26 0.37
27 0.15
28 0.15
29 0.15
3 -0.99
30 0.15
31 0.15
32 0.36
33 0.36
34 0.15
35 0.15
36 0.15
37 0.15
38 0.15
39 0.15
4 -0.62
5 0.2
6 -0.14
7 0.27
8 0.57
9 0.12

> <PUBCHEM_EFFECTIVE_ROTOR_COUNT>
5

> <PUBCHEM_PHARMACOPHORE_FEATURES>
8
1 1 acceptor
1 2 donor
1 3 cation
1 3 donor
1 4 acceptor
6 4 12 14 20 21 22 rings
6 6 10 11 17 18 19 rings
6 9 12 13 14 15 16 rings

> <PUBCHEM_HEAVY_ATOM_COUNT>
22

> <PUBCHEM_ATOM_DEF_STEREO_COUNT>
0

> <PUBCHEM_ATOM_UDEF_STEREO_COUNT>
1

> <PUBCHEM_BOND_DEF_STEREO_COUNT>
0

> <PUBCHEM_BOND_UDEF_STEREO_COUNT>
0

> <PUBCHEM_ISOTOPIC_ATOM_COUNT>
0

> <PUBCHEM_COMPONENT_COUNT>
1

> <PUBCHEM_CACTVS_TAUTO_COUNT>
3

> <PUBCHEM_CONFORMER_ID>
02C0B5DC00000001

> <PUBCHEM_MMFF94_ENERGY>
66.1022

> <PUBCHEM_FEATURE_SELFOVERLAP>
40.622

> <PUBCHEM_SHAPE_FINGERPRINT>
10 15 16988551417027036706
10366900 7 17312821576122623177
11405975 8 18336547234782148339
11646440 116 16845579725022491795
12166972 35 18273498987245609656
12236239 1 18411702101477767873
12516196 113 18334009485078876664
12553582 1 18261100856103355162
12596602 18 18060694001121733250
12616971 3 18341614849910338517
12633257 1 18410293622582034423
13533116 47 18186801413047486048
13668630 136 17603588508414782202
13911852 28 18116423735813094058
13914758 101 18261103046911183725
14251718 22 11891336447787263451
14251764 18 18343300379781994446
14341114 176 18410577309509028800
14739800 52 17559106803583225328
15131766 46 17828205725173200901
15183329 4 18409729547526458063
15188451 53 17846202393476909335
15348495 7 16701728449443565034
15788980 27 16988841687400099109
17349148 13 18202566193586526215
17844677 252 16732985305815185222
17857418 61 18409444791026077427
1813 80 18260834761420382180
18222031 100 18410575076664117924
19489759 90 17489869324047484403
20028762 73 18272085015377030038
20645477 70 16370721483899078890
21033648 29 16056302934969261706
21267235 1 18342747333791159639
21365058 113 16515694329171649062
22061861 79 16443061677630925554
221357 26 15357694184714569918
2215653 11 16008744719335628939
22950370 63 18334013865876855678
23402539 116 17775281660487147253
23522609 53 18044405801144793228
23557571 272 17131283371571295817
23559900 14 14562818789269926815
2767999 5 10952044555020662250
3004659 81 18343871034616795940
314194 84 17967532350740562450
3411729 13 18058159717541978552
345986 75 18042668526018156464
351380 3 18334010571410320442
3545911 37 17632301150793534599
4073 2 17970634210454831672
4340502 62 13398633856998393229
46194498 28 15574717993598298118
465052 167 18334861615001242782
5104073 3 18200879594795554203
5385378 56 17559689347467204311
54039377 194 17896597285867933914
559249 180 18342454816548502399
5924683 9 16199287936892853935
59755656 215 17489316243702290334
67856867 119 18199747114508813729
8863177 126 17677626417583822355
9971528 1 18411133667241876416
9981440 41 17258489471135176848

> <PUBCHEM_SHAPE_MULTIPOLES>
431.94
15.91
1.9
1.17
4.18
1.39
-0.2
-5.69
-2.93
-1.23
0.39
-0.74
-0.19
-1.73

> <PUBCHEM_SHAPE_SELFOVERLAP>
940.574

> <PUBCHEM_SHAPE_VOLUME>
233

> <PUBCHEM_COORDINATE_TYPE>
2
5
10

$$$$
70833120
  -OEChem-05102415033D

 61 64  0     1  0  0  0  0  0999 V2000
   -3.8186   -0.9859    0.3206 O   0  0  0  0  0  0  0  0  0  0  0  0
    2.9457   -2.1875   -1.8735 O   0  0  0  0  0  0  0  0  0  0  0  0
   -6.0631   -1.2996    0.7242 O   0  0  0  0  0  0  0  0  0  0  0  0
    3.2483   -1.2562    0.2644 N   0  0  0  0  0  0  0  0  0  0  0  0
    1.8381   -5.8778   -0.0339 N   0  0  0  0  0  0  0  0  0  0  0  0
    6.2787    4.4093    0.2597 N   0  0  0  0  0  0  0  0  0  0  0  0
    2.1174   -3.4068    0.0430 C   0  0  1  0  0  0  0  0  0  0  0  0
    0.6293   -3.1318    0.1930 C   0  0  0  0  0  0  0  0  0  0  0  0
    2.4119   -4.7188   -0.7129 C   0  0  0  0  0  0  0  0  0  0  0  0
    2.8081   -2.2240   -0.6538 C   0  0  0  0  0  0  0  0  0  0  0  0
   -0.1696   -2.9803   -0.9404 C   0  0  0  0  0  0  0  0  0  0  0  0
    0.0635   -3.0289    1.4638 C   0  0  0  0  0  0  0  0  0  0  0  0
   -2.0998   -2.6233    0.4679 C   0  0  0  0  0  0  0  0  0  0  0  0
   -1.5342   -2.7261   -0.8030 C   0  0  0  0  0  0  0  0  0  0  0  0
   -1.3010   -2.7747    1.6013 C   0  0  0  0  0  0  0  0  0  0  0  0
    3.9113   -0.0565    0.0032 C   0  0  0  0  0  0  0  0  0  0  0  0
   -3.5592   -2.3530    0.6150 C   0  0  0  0  0  0  0  0  0  0  0  0
    4.2772    0.7813    1.0582 C   0  0  0  0  0  0  0  0  0  0  0  0
    4.9438    1.9924    0.8109 C   0  0  0  0  0  0  0  0  0  0  0  0
    4.2059    0.3032   -1.3098 C   0  0  0  0  0  0  0  0  0  0  0  0
    5.2402    2.3531   -0.5199 C   0  0  0  0  0  0  0  0  0  0  0  0
    4.8675    1.5022   -1.5738 C   0  0  0  0  0  0  0  0  0  0  0  0
   -5.2547    0.8500    0.0835 C   0  0  0  0  0  0  0  0  0  0  0  0
    5.3238    2.8535    1.8467 C   0  0  0  0  0  0  0  0  0  0  0  0
   -5.1181   -0.5910    0.4142 C   0  0  0  0  0  0  0  0  0  0  0  0
   -6.6381    2.8114   -0.1920 C   0  0  0  0  0  0  0  0  0  0  0  0
   -4.2563    2.9500   -0.5726 C   0  0  0  0  0  0  0  0  0  0  0  0
   -4.1280    1.5962   -0.2620 C   0  0  0  0  0  0  0  0  0  0  0  0
   -6.5097    1.4576    0.1186 C   0  0  0  0  0  0  0  0  0  0  0  0
    5.9038    3.5641   -0.7268 C   0  0  0  0  0  0  0  0  0  0  0  0
   -5.5113    3.5576   -0.5376 C   0  0  0  0  0  0  0  0  0  0  0  0
    5.9788    4.0313    1.5205 C   0  0  0  0  0  0  0  0  0  0  0  0
   -7.9799    3.4612   -0.1548 C   0  0  0  0  0  0  0  0  0  0  0  0
   -3.0516    3.7478   -0.9421 C   0  0  0  0  0  0  0  0  0  0  0  0
    2.5637   -3.5092    1.0427 H   0  0  0  0  0  0  0  0  0  0  0  0
    2.0312   -4.6851   -1.7404 H   0  0  0  0  0  0  0  0  0  0  0  0
    3.4970   -4.8578   -0.7866 H   0  0  0  0  0  0  0  0  0  0  0  0
    0.2509   -3.0544   -1.9393 H   0  0  0  0  0  0  0  0  0  0  0  0
    0.6733   -3.1433    2.3559 H   0  0  0  0  0  0  0  0  0  0  0  0
   -2.1471   -2.6088   -1.6928 H   0  0  0  0  0  0  0  0  0  0  0  0
   -1.7276   -2.6952    2.5977 H   0  0  0  0  0  0  0  0  0  0  0  0
    3.0607   -1.4381    1.2480 H   0  0  0  0  0  0  0  0  0  0  0  0
   -4.1235   -2.9964   -0.0719 H   0  0  0  0  0  0  0  0  0  0  0  0
   -3.8944   -2.5783    1.6351 H   0  0  0  0  0  0  0  0  0  0  0  0
    2.0631   -6.7209   -0.5608 H   0  0  0  0  0  0  0  0  0  0  0  0
    0.8214   -5.8108   -0.0310 H   0  0  0  0  0  0  0  0  0  0  0  0
    4.0431    0.4930    2.0819 H   0  0  0  0  0  0  0  0  0  0  0  0
    3.9535   -0.2901   -2.1771 H   0  0  0  0  0  0  0  0  0  0  0  0
    5.0900    1.7694   -2.6045 H   0  0  0  0  0  0  0  0  0  0  0  0
    5.1170    2.6177    2.8862 H   0  0  0  0  0  0  0  0  0  0  0  0
   -3.1366    1.1523   -0.3006 H   0  0  0  0  0  0  0  0  0  0  0  0
   -7.3928    0.8835    0.3890 H   0  0  0  0  0  0  0  0  0  0  0  0
    6.1619    3.9014   -1.7270 H   0  0  0  0  0  0  0  0  0  0  0  0
   -5.6121    4.6129   -0.7798 H   0  0  0  0  0  0  0  0  0  0  0  0
    6.2891    4.7246    2.2956 H   0  0  0  0  0  0  0  0  0  0  0  0
   -8.7696    2.7518   -0.4249 H   0  0  0  0  0  0  0  0  0  0  0  0
   -8.0383    4.2909   -0.8674 H   0  0  0  0  0  0  0  0  0  0  0  0
   -8.1826    3.8469    0.8492 H   0  0  0  0  0  0  0  0  0  0  0  0
   -2.1774    3.4276   -0.3650 H   0  0  0  0  0  0  0  0  0  0  0  0
   -3.1992    4.8131   -0.7346 H   0  0  0  0  0  0  0  0  0  0  0  0
   -2.8342    3.6278   -2.0081 H   0  0  0  0  0  0  0  0  0  0  0  0
  1 17  1  0  0  0  0
  1 25  1  0  0  0  0
  2 10  2  0  0  0  0
  3 25  2  0  0  0  0
  4 10  1  0  0  0  0
  4 16  1  0  0  0  0
  4 42  1  0  0  0  0
  5  9  1  0  0  0  0
  5 45  1  0  0  0  0
  5 46  1  0  0  0  0
  6 30  2  0  0  0  0
  6 32  1  0  0  0  0
  7  8  1  0  0  0  0
  7  9  1  0  0  0  0
  7 10  1  0  0  0  0
  7 35  1  0  0  0  0
  8 11  2  0  0  0  0
  8 12  1  0  0  0  0
  9 36  1  0  0  0  0
  9 37  1  0  0  0  0
 11 14  1  0  0  0  0
 11 38  1  0  0  0  0
 12 15  2  0  0  0  0
 12 39  1  0  0  0  0
 13 14  2  0  0  0  0
 13 15  1  0  0  0  0
 13 17  1  0  0  0  0
 14 40  1  0  0  0  0
 15 41  1  0  0  0  0
 16 18  2  0  0  0  0
 16 20  1  0  0  0  0
 17 43  1  0  0  0  0
 17 44  1  0  0  0  0
 18 19  1  0  0  0  0
 18 47  1  0  0  0  0
 19 21  2  0  0  0  0
 19 24  1  0  0  0  0
 20 22  2  0  0  0  0
 20 48  1  0  0  0  0
 21 22  1  0  0  0  0
 21 30  1  0  0  0  0
 22 49  1  0  0  0  0
 23 25  1  0  0  0  0
 23 28  2  0  0  0  0
 23 29  1  0  0  0  0
 24 32  2  0  0  0  0
 24 50  1  0  0  0  0
 26 29  2  0  0  0  0
 26 31  1  0  0  0  0
 26 33  1  0  0  0  0
 27 28  1  0  0  0  0
 27 31  2  0  0  0  0
 27 34  1  0  0  0  0
 28 51  1  0  0  0  0
 29 52  1  0  0  0  0
 30 53  1  0  0  0  0
 31 54  1  0  0  0  0
 32 55  1  0  0  0  0
 33 56  1  0  0  0  0
 33 57  1  0  0  0  0
 33 58  1  0  0  0  0
 34 59  1  0  0  0  0
 34 60  1  0  0  0  0
 34 61  1  0  0  0  0
M  END
> <PUBCHEM_COMPOUND_CID>
70833120

> <PUBCHEM_CONFORMER_RMSD>
1.2

> <PUBCHEM_CONFORMER_DIVERSEORDER>
1
96
18
97
75
54
10
76
60
83
39
88
84
108
68
29
74
71
21
99
56
92
65
46
110
31
49
45
30
28
8
53
109
41
114
103
94
48
23
59
9
105
111
106
62
73
52
15
25
35
80
64
87
33
100
13
58
51
38
67
104
11
102
81
70
19
5
78
77
43
72
82
55
42
93
12
85
32
69
91
101
86
37
17
61
50
24
26
95
40
79
57
36
89
47
113
3
16
14
20
34
90
66
22
63
112
98
107
7
44
2
6
4
27

> <PUBCHEM_MMFF94_PARTIAL_CHARGES>
48
1 -0.43
10 0.57
11 -0.15
12 -0.15
13 -0.14
14 -0.15
15 -0.15
16 0.12
17 0.42
18 -0.15
2 -0.57
20 -0.15
22 -0.15
23 0.09
24 -0.15
25 0.63
26 -0.14
27 -0.14
28 -0.15
29 -0.15
3 -0.57
30 0.16
31 -0.15
32 0.16
33 0.14
34 0.14
38 0.15
39 0.15
4 -0.55
40 0.15
41 0.15
42 0.37
45 0.36
46 0.36
47 0.15
48 0.15
49 0.15
5 -0.99
50 0.15
51 0.15
52 0.15
53 0.15
54 0.15
55 0.15
6 -0.62
7 0.2
8 -0.14
9 0.27

> <PUBCHEM_EFFECTIVE_ROTOR_COUNT>
9

> <PUBCHEM_PHARMACOPHORE_FEATURES>
10
1 2 acceptor
1 3 acceptor
1 4 donor
1 5 cation
1 5 donor
1 6 acceptor
6 16 18 19 20 21 22 rings
6 23 26 27 28 29 31 rings
6 6 19 21 24 30 32 rings
6 8 11 12 13 14 15 rings

> <PUBCHEM_HEAVY_ATOM_COUNT>
34

> <PUBCHEM_ATOM_DEF_STEREO_COUNT>
0

> <PUBCHEM_ATOM_UDEF_STEREO_COUNT>
1

> <PUBCHEM_BOND_DEF_STEREO_COUNT>
0

> <PUBCHEM_BOND_UDEF_STEREO_COUNT>
0

> <PUBCHEM_ISOTOPIC_ATOM_COUNT>
0

> <PUBCHEM_COMPONENT_COUNT>
1

> <PUBCHEM_CACTVS_TAUTO_COUNT>
5

> <PUBCHEM_CONFORMER_ID>
0438D3E000000001

> <PUBCHEM_MMFF94_ENERGY>
100.1554

> <PUBCHEM_FEATURE_SELFOVERLAP>
50.774

> <PUBCHEM_SHAPE_FINGERPRINT>
10556698 54 18127428769059285436
10675989 125 18339362946553500640
10771551 21 18200600168239461544
10842077 115 17172055367384349948
10864689 126 18341619265311558400
10928967 22 11095346108760564518
11386260 185 17910390589706244591
11399510 152 17749690522934921147
12655364 74 17259904547386189412
14068700 686 18339368556198319119
14429114 114 18409167705954238641
14739800 52 18115021880126046587
14904385 31 18336259158420046436
15001296 14 18190461567656709713
15198563 99 17623006115626899935
15320291 9 18121492453877980325
15979999 66 17479464434491945934
16988056 13 18124599683071529102
16990350 14 18409448094552084786
19053607 189 18260839214737550484
19304152 47 18193284223910625106
19304671 126 17846791697418483676
20238998 120 17979356357601247278
20609170 109 16592250231621998425
21315764 268 17973726866518896759
21792938 324 17977078204026165458
21859007 373 18339082700791699212
22033318 11 17749941272174719440
23191077 185 18340759442238186379
23516275 100 18336261327616505757
2748736 6 18410565223544969265
2838139 119 18413103974318999558
376196 1 18409733958595943514
3918712 181 18408314498001187301
393628 179 18126272284643205368
437795 171 18262509308565725701
44249763 50 17772463740912831064
508180 173 17975714804737755266
5219985 13 18340768255753164310
5223283 242 17266402184306290783
5265222 85 18195526115398204601
5776283 40 18264786384962834022
6176135 31 18336819793227995624
6677587 24 17560799914181954574
9849439 229 18409163337708851986
9980921 52 11964255046041886801

> <PUBCHEM_SHAPE_MULTIPOLES>
667.15
19.96
8.38
1.38
15.62
3.01
0.13
-32.18
0.94
-5.2
-0.02
-1.82
-0.11
3.54

> <PUBCHEM_SHAPE_SELFOVERLAP>
1451.674

> <PUBCHEM_SHAPE_VOLUME>
362.9

> <PUBCHEM_COORDINATE_TYPE>
2
5
10

$$$$
127030603
  -OEChem-05102415033D

 47 49  0     1  0  0  0  0  0999 V2000
    0.5824   -2.3716   -1.5367 O   0  0  0  0  0  0  0  0  0  0  0  0
   -5.1407    1.0202    0.0687 O   0  0  0  0  0  0  0  0  0  0  0  0
   -3.6026    2.7514   -0.2477 O   0  0  0  0  0  0  0  0  0  0  0  0
    1.2319   -1.2721    0.4377 N   0  0  0  0  0  0  0  0  0  0  0  0
   -2.2622   -4.6102    0.7273 N   0  0  0  0  0  0  0  0  0  0  0  0
    6.6599    2.1225   -0.1067 N   0  0  0  0  0  0  0  0  0  0  0  0
   -5.5945    4.6031   -0.4452 N   0  0  0  0  0  0  0  0  0  0  0  0
   -0.8039   -2.6168    0.4290 C   0  0  1  0  0  0  0  0  0  0  0  0
   -1.9670   -1.6418    0.3327 C   0  0  0  0  0  0  0  0  0  0  0  0
   -1.1690   -4.0358   -0.0528 C   0  0  0  0  0  0  0  0  0  0  0  0
    0.4034   -2.0817   -0.3570 C   0  0  0  0  0  0  0  0  0  0  0  0
   -2.5478   -1.3697   -0.9059 C   0  0  0  0  0  0  0  0  0  0  0  0
   -2.4529   -1.0195    1.4827 C   0  0  0  0  0  0  0  0  0  0  0  0
    2.4088   -0.6179    0.0710 C   0  0  0  0  0  0  0  0  0  0  0  0
    4.2890    0.8096    0.6565 C   0  0  0  0  0  0  0  0  0  0  0  0
    3.1040    0.1445    1.0112 C   0  0  0  0  0  0  0  0  0  0  0  0
   -3.6146   -0.4754   -0.9947 C   0  0  0  0  0  0  0  0  0  0  0  0
   -3.5196   -0.1252    1.3940 C   0  0  0  0  0  0  0  0  0  0  0  0
    4.7697    0.6974   -0.6646 C   0  0  0  0  0  0  0  0  0  0  0  0
   -4.1004    0.1468    0.1552 C   0  0  0  0  0  0  0  0  0  0  0  0
    2.8868   -0.7263   -1.2328 C   0  0  0  0  0  0  0  0  0  0  0  0
    4.0621   -0.0728   -1.6024 C   0  0  0  0  0  0  0  0  0  0  0  0
    5.0088    1.5812    1.5761 C   0  0  0  0  0  0  0  0  0  0  0  0
    5.9507    1.3723   -0.9800 C   0  0  0  0  0  0  0  0  0  0  0  0
    6.1699    2.2069    1.1484 C   0  0  0  0  0  0  0  0  0  0  0  0
   -4.7575    2.3599   -0.1435 C   0  0  0  0  0  0  0  0  0  0  0  0
   -5.9948    3.2210   -0.2205 C   0  0  0  0  0  0  0  0  0  0  0  0
   -0.5003   -2.7070    1.4820 H   0  0  0  0  0  0  0  0  0  0  0  0
   -1.4485   -4.0413   -1.1128 H   0  0  0  0  0  0  0  0  0  0  0  0
   -0.2916   -4.6866    0.0419 H   0  0  0  0  0  0  0  0  0  0  0  0
   -2.1840   -1.8419   -1.8140 H   0  0  0  0  0  0  0  0  0  0  0  0
   -2.0104   -1.2210    2.4545 H   0  0  0  0  0  0  0  0  0  0  0  0
    0.9458   -1.1318    1.4043 H   0  0  0  0  0  0  0  0  0  0  0  0
    2.7237    0.2243    2.0285 H   0  0  0  0  0  0  0  0  0  0  0  0
   -4.0625   -0.2679   -1.9627 H   0  0  0  0  0  0  0  0  0  0  0  0
   -3.8935    0.3561    2.2937 H   0  0  0  0  0  0  0  0  0  0  0  0
   -2.4644   -5.5478    0.3823 H   0  0  0  0  0  0  0  0  0  0  0  0
   -3.1132   -4.0683    0.5845 H   0  0  0  0  0  0  0  0  0  0  0  0
    2.4043   -1.2947   -2.0152 H   0  0  0  0  0  0  0  0  0  0  0  0
    4.4223   -0.1667   -2.6245 H   0  0  0  0  0  0  0  0  0  0  0  0
    4.6774    1.6962    2.6036 H   0  0  0  0  0  0  0  0  0  0  0  0
    6.3755    1.3276   -1.9792 H   0  0  0  0  0  0  0  0  0  0  0  0
    6.7551    2.8138    1.8317 H   0  0  0  0  0  0  0  0  0  0  0  0
   -6.5510    3.1398    0.7178 H   0  0  0  0  0  0  0  0  0  0  0  0
   -6.6130    2.8783   -1.0550 H   0  0  0  0  0  0  0  0  0  0  0  0
   -5.0620    4.9400    0.3563 H   0  0  0  0  0  0  0  0  0  0  0  0
   -6.4262    5.1901   -0.4969 H   0  0  0  0  0  0  0  0  0  0  0  0
  1 11  2  0  0  0  0
  2 20  1  0  0  0  0
  2 26  1  0  0  0  0
  3 26  2  0  0  0  0
  4 11  1  0  0  0  0
  4 14  1  0  0  0  0
  4 33  1  0  0  0  0
  5 10  1  0  0  0  0
  5 37  1  0  0  0  0
  5 38  1  0  0  0  0
  6 24  2  0  0  0  0
  6 25  1  0  0  0  0
  7 27  1  0  0  0  0
  7 46  1  0  0  0  0
  7 47  1  0  0  0  0
  8  9  1  0  0  0  0
  8 10  1  0  0  0  0
  8 11  1  0  0  0  0
  8 28  1  0  0  0  0
  9 12  2  0  0  0  0
  9 13  1  0  0  0  0
 10 29  1  0  0  0  0
 10 30  1  0  0  0  0
 12 17  1  0  0  0  0
 12 31  1  0  0  0  0
 13 18  2  0  0  0  0
 13 32  1  0  0  0  0
 14 16  2  0  0  0  0
 14 21  1  0  0  0  0
 15 16  1  0  0  0  0
 15 19  2  0  0  0  0
 15 23  1  0  0  0  0
 16 34  1  0  0  0  0
 17 20  2  0  0  0  0
 17 35  1  0  0  0  0
 18 20  1  0  0  0  0
 18 36  1  0  0  0  0
 19 22  1  0  0  0  0
 19 24  1  0  0  0  0
 21 22  2  0  0  0  0
 21 39  1  0  0  0  0
 22 40  1  0  0  0  0
 23 25  2  0  0  0  0
 23 41  1  0  0  0  0
 24 42  1  0  0  0  0
 25 43  1  0  0  0  0
 26 27  1  0  0  0  0
 27 44  1  0  0  0  0
 27 45  1  0  0  0  0
M  END
> <PUBCHEM_COMPOUND_CID>
127030603

> <PUBCHEM_CONFORMER_RMSD>
0.8

> <PUBCHEM_CONFORMER_DIVERSEORDER>
1
85
57
28
12
91
78
38
69
14
49
71
31
84
32
61
62
75
68
72
60
81
25
7
41
65
45
79
82
8
35
44
42
63
17
36
88
80
90
89
48
56
86
13
54
52
23
5
58
19
66
74
21
22
6
76
43
18
9
93
11
64
92
20
55
40
51
59
77
73
27
26
15
10
30
3
33
50
53
39
29
4
83
67
87
16
34
46
47
37
24
70
2

> <PUBCHEM_MMFF94_PARTIAL_CHARGES>
40
1 -0.57
10 0.27
11 0.57
12 -0.15
13 -0.15
14 0.12
16 -0.15
17 -0.15
18 -0.15
2 -0.23
20 0.08
21 -0.15
22 -0.15
23 -0.15
24 0.16
25 0.16
26 0.66
27 0.33
3 -0.57
31 0.15
32 0.15
33 0.37
34 0.15
35 0.15
36 0.15
37 0.36
38 0.36
39 0.15
4 -0.55
40 0.15
41 0.15
42 0.15
43 0.15
46 0.36
47 0.36
5 -0.99
6 -0.62
7 -0.99
8 0.2
9 -0.14

> <PUBCHEM_EFFECTIVE_ROTOR_COUNT>
8

> <PUBCHEM_PHARMACOPHORE_FEATURES>
11
1 1 acceptor
1 3 acceptor
1 4 donor
1 5 cation
1 5 donor
1 6 acceptor
1 7 cation
1 7 donor
6 14 15 16 19 21 22 rings
6 6 15 19 23 24 25 rings
6 9 12 13 17 18 20 rings

> <PUBCHEM_HEAVY_ATOM_COUNT>
27

> <PUBCHEM_ATOM_DEF_STEREO_COUNT>
0

> <PUBCHEM_ATOM_UDEF_STEREO_COUNT>
1

> <PUBCHEM_BOND_DEF_STEREO_COUNT>
0

> <PUBCHEM_BOND_UDEF_STEREO_COUNT>
0

> <PUBCHEM_ISOTOPIC_ATOM_COUNT>
0

> <PUBCHEM_COMPONENT_COUNT>
1

> <PUBCHEM_CACTVS_TAUTO_COUNT>
20

> <PUBCHEM_CONFORMER_ID>
0792554B00000001

> <PUBCHEM_MMFF94_ENERGY>
79.3611

> <PUBCHEM_FEATURE_SELFOVERLAP>
55.848

> <PUBCHEM_SHAPE_FINGERPRINT>
10498660 4 18130788944964728027
105312 117 18411136960890896934
10675989 125 17979636728201170457
10864689 126 18340207367574430052
10937287 8 18338795598975651799
11135609 201 18411703167294231115
11720765 8 17626954075904327334
12107183 9 18189601779734529690
12422481 6 17168421541399364957
12633257 1 16081379561125328927
12988421 55 17749659736503509207
13103583 49 16298392391549999906
13944108 23 17764872394496615681
14251764 30 9007053578140836845
14251764 75 18126853694772266401
14341114 328 16805329906842626392
14347329 18 18411697682125596192
14429114 114 18121497943563758541
14950920 106 16154281639969918305
15163728 17 18337673010383014895
15198563 99 18125715936587404999
15513586 35 16880493745794039397
15803439 3 16988555797323597055
16120349 189 18334288747878567341
17980427 26 18194104249295300199
19304671 126 17702105768297673037
19438510 23 18260551074250917953
20691028 202 18408605837879460844
21033648 144 18202012057080543822
21033648 29 18335992999232805543
21054139 6 11815630683581489236
21401589 2 18259987046555831281
21585480 29 12542420036419227792
23559900 14 18200047234988115382
23569914 152 17270338483320196844
23569914 2 17271122666981928936
25122255 55 8718827600077983764
270888 7 18409446943200415981
2748736 6 18336536128065838325
2838139 119 18341886390026358594
312425 54 12180108853011817684
3246875 12 18409731743135590897
3418910 222 17471580301076826880
376196 1 18341616954102240791
3862424 121 13900467517606198245
392239 28 15430042079755164853
4144715 1 18047196530108501754
44249763 50 17917134104724468968
474113 269 11891634442295508729
508706 21 18270392931379303632
5219985 13 18337670824212681647
57724786 102 18187360974477562514
7288768 16 18113620058592599555
7808743 9 18408885174046236754
8863177 126 8430306940087584260
9849439 229 18336823087847076473
9980921 52 11748950843839255729
9981440 41 18261679186382487611

> <PUBCHEM_SHAPE_MULTIPOLES>
518.12
16.09
4.86
1.37
9.88
0.25
-0.04
-21.04
0.01
-8.57
0.03
1.08
0.1
1.92

> <PUBCHEM_SHAPE_SELFOVERLAP>
1118.751

> <PUBCHEM_SHAPE_VOLUME>
280.5

> <PUBCHEM_COORDINATE_TYPE>
2
5
10

$$$$
127031251
  -OEChem-05102415033D

 39 41  0     1  0  0  0  0  0999 V2000
    2.9862    1.7915   -2.1158 Cl  0  0  0  0  0  0  0  0  0  0  0  0
    0.9294   -2.1444    0.7287 O   0  0  0  0  0  0  0  0  0  0  0  0
    0.0195   -0.4086   -0.5707 N   0  0  0  0  0  0  0  0  0  0  0  0
    4.4742   -1.9703   -1.6447 N   0  0  0  0  0  0  0  0  0  0  0  0
   -6.2740    0.5251    0.3252 N   0  0  0  0  0  0  0  0  0  0  0  0
    2.3961   -0.9277   -0.7593 C   0  0  1  0  0  0  0  0  0  0  0  0
    3.1363    0.1324    0.0412 C   0  0  0  0  0  0  0  0  0  0  0  0
    3.2164   -2.2206   -0.9455 C   0  0  0  0  0  0  0  0  0  0  0  0
    1.0452   -1.2445   -0.0987 C   0  0  0  0  0  0  0  0  0  0  0  0
   -1.3268   -0.4021   -0.2037 C   0  0  0  0  0  0  0  0  0  0  0  0
    3.4383    1.3814   -0.5013 C   0  0  0  0  0  0  0  0  0  0  0  0
    3.5148   -0.1698    1.3493 C   0  0  0  0  0  0  0  0  0  0  0  0
   -3.5623    0.5286   -0.4327 C   0  0  0  0  0  0  0  0  0  0  0  0
   -2.2050    0.5092   -0.7928 C   0  0  0  0  0  0  0  0  0  0  0  0
   -4.0288   -0.3863    0.5339 C   0  0  0  0  0  0  0  0  0  0  0  0
   -1.7915   -1.3041    0.7506 C   0  0  0  0  0  0  0  0  0  0  0  0
   -3.1363   -1.2989    1.1201 C   0  0  0  0  0  0  0  0  0  0  0  0
    4.1188    2.3282    0.2643 C   0  0  0  0  0  0  0  0  0  0  0  0
    4.1954    0.7770    2.1149 C   0  0  0  0  0  0  0  0  0  0  0  0
    4.4975    2.0260    1.5724 C   0  0  0  0  0  0  0  0  0  0  0  0
   -4.4676    1.4296   -1.0053 C   0  0  0  0  0  0  0  0  0  0  0  0
   -5.3842   -0.3374    0.8662 C   0  0  0  0  0  0  0  0  0  0  0  0
   -5.7918    1.3858   -0.5965 C   0  0  0  0  0  0  0  0  0  0  0  0
    2.1673   -0.5842   -1.7734 H   0  0  0  0  0  0  0  0  0  0  0  0
    3.4337   -2.7039    0.0141 H   0  0  0  0  0  0  0  0  0  0  0  0
    2.6292   -2.9406   -1.5282 H   0  0  0  0  0  0  0  0  0  0  0  0
    0.2793    0.2896   -1.2641 H   0  0  0  0  0  0  0  0  0  0  0  0
    3.2902   -1.1340    1.7962 H   0  0  0  0  0  0  0  0  0  0  0  0
   -1.8338    1.2112   -1.5380 H   0  0  0  0  0  0  0  0  0  0  0  0
   -1.1737   -2.0360    1.2514 H   0  0  0  0  0  0  0  0  0  0  0  0
    4.9778   -2.8496   -1.7549 H   0  0  0  0  0  0  0  0  0  0  0  0
    5.0735   -1.3719   -1.0782 H   0  0  0  0  0  0  0  0  0  0  0  0
   -3.4838   -2.0092    1.8670 H   0  0  0  0  0  0  0  0  0  0  0  0
    4.3617    3.3061   -0.1436 H   0  0  0  0  0  0  0  0  0  0  0  0
    4.4898    0.5421    3.1336 H   0  0  0  0  0  0  0  0  0  0  0  0
    5.0273    2.7632    2.1687 H   0  0  0  0  0  0  0  0  0  0  0  0
   -4.1542    2.1517   -1.7531 H   0  0  0  0  0  0  0  0  0  0  0  0
   -5.8084   -1.0140    1.6031 H   0  0  0  0  0  0  0  0  0  0  0  0
   -6.5234    2.0681   -1.0171 H   0  0  0  0  0  0  0  0  0  0  0  0
  1 11  1  0  0  0  0
  2  9  2  0  0  0  0
  3  9  1  0  0  0  0
  3 10  1  0  0  0  0
  3 27  1  0  0  0  0
  4  8  1  0  0  0  0
  4 31  1  0  0  0  0
  4 32  1  0  0  0  0
  5 22  2  0  0  0  0
  5 23  1  0  0  0  0
  6  7  1  0  0  0  0
  6  8  1  0  0  0  0
  6  9  1  0  0  0  0
  6 24  1  0  0  0  0
  7 11  1  0  0  0  0
  7 12  2  0  0  0  0
  8 25  1  0  0  0  0
  8 26  1  0  0  0  0
 10 14  2  0  0  0  0
 10 16  1  0  0  0  0
 11 18  2  0  0  0  0
 12 19  1  0  0  0  0
 12 28  1  0  0  0  0
 13 14  1  0  0  0  0
 13 15  2  0  0  0  0
 13 21  1  0  0  0  0
 14 29  1  0  0  0  0
 15 17  1  0  0  0  0
 15 22  1  0  0  0  0
 16 17  2  0  0  0  0
 16 30  1  0  0  0  0
 17 33  1  0  0  0  0
 18 20  1  0  0  0  0
 18 34  1  0  0  0  0
 19 20  2  0  0  0  0
 19 35  1  0  0  0  0
 20 36  1  0  0  0  0
 21 23  2  0  0  0  0
 21 37  1  0  0  0  0
 22 38  1  0  0  0  0
 23 39  1  0  0  0  0
M  END
> <PUBCHEM_COMPOUND_CID>
127031251

> <PUBCHEM_CONFORMER_RMSD>
0.8

> <PUBCHEM_CONFORMER_DIVERSEORDER>
1
17
29
42
33
31
47
34
53
44
52
50
32
5
22
6
54
59
57
23
8
58
38
12
48
9
51
16
20
55
2
43
41
13
15
60
49
18
30
11
27
3
45
56
28
26
7
46
14
10
40
35
36
37
4
24
19
21
39
25

> <PUBCHEM_MMFF94_PARTIAL_CHARGES>
34
1 -0.18
10 0.12
11 0.18
12 -0.15
14 -0.15
16 -0.15
17 -0.15
18 -0.15
19 -0.15
2 -0.57
20 -0.15
21 -0.15
22 0.16
23 0.16
27 0.37
28 0.15
29 0.15
3 -0.55
30 0.15
31 0.36
32 0.36
33 0.15
34 0.15
35 0.15
36 0.15
37 0.15
38 0.15
39 0.15
4 -0.99
5 -0.62
6 0.2
7 -0.14
8 0.27
9 0.57

> <PUBCHEM_EFFECTIVE_ROTOR_COUNT>
5

> <PUBCHEM_PHARMACOPHORE_FEATURES>
8
1 2 acceptor
1 3 donor
1 4 cation
1 4 donor
1 5 acceptor
6 10 13 14 15 16 17 rings
6 5 13 15 21 22 23 rings
6 7 11 12 18 19 20 rings

> <PUBCHEM_HEAVY_ATOM_COUNT>
23

> <PUBCHEM_ATOM_DEF_STEREO_COUNT>
0

> <PUBCHEM_ATOM_UDEF_STEREO_COUNT>
1

> <PUBCHEM_BOND_DEF_STEREO_COUNT>
0

> <PUBCHEM_BOND_UDEF_STEREO_COUNT>
0

> <PUBCHEM_ISOTOPIC_ATOM_COUNT>
0

> <PUBCHEM_COMPONENT_COUNT>
1

> <PUBCHEM_CACTVS_TAUTO_COUNT>
27

> <PUBCHEM_CONFORMER_ID>
079257D300000001

> <PUBCHEM_MMFF94_ENERGY>
69.0952

> <PUBCHEM_FEATURE_SELFOVERLAP>
40.623

> <PUBCHEM_SHAPE_FINGERPRINT>
10319926 262 17894907421313212946
10498660 4 17560799999954796544
10912923 1 15068632582383600855
10928967 22 10159703503571270045
11128504 68 15626224641127753761
11595378 159 15574995040004219141
12403259 118 18115301318654787921
12403259 415 18335989692340226063
12596602 18 16008749151974305457
12616971 3 16630248017811736655
12633257 1 17168135771618913876
13533116 47 18130511842354577223
13914758 101 13695853828520633967
13955234 65 18270118998423927515
14170010 4 17989203716903771942
14251758 9 13696131978591348823
14341114 176 17749100089495944408
14341114 328 17241042223077703896
14528608 73 16559028315953130177
15081414 286 18343305872439232320
15238133 3 17168142291358020964
17349148 13 13334735704859658321
17844677 252 18130231445889398453
18681886 176 17386309639373711126
1979834 28 18410576197086365972
20715895 44 18115012010096092733
21033648 29 18335140877932334153
21452121 103 18411975858614545018
21792934 111 17604141516542149885
21859007 373 16300328503199787021
22149856 69 18338538391133681659
23559900 14 18261120633847842582
341906 21 17894912936072150473
3472631 163 17559948995156346616
34797466 226 18272934925649538511
3680242 22 17821727200397571065
465052 167 11458420211265795288
474 4 17702940473869080744
495365 180 18202001027905188574
5104073 3 17968378936529484705
5219985 9 17630338424709099982
543368 44 16630237113048034729
633830 44 18259985989387656783
6823239 73 18115039545204520652
7808743 9 17974574899084601884
7970288 3 11170452618573093768
960060 61 12535352319745902064

> <PUBCHEM_SHAPE_MULTIPOLES>
454.39
13.85
2.31
1.66
13.69
0.05
0.09
-5.5
1.91
-2.42
-0.45
-2.32
-0.29
2.11

> <PUBCHEM_SHAPE_SELFOVERLAP>
980.388

> <PUBCHEM_SHAPE_VOLUME>
248.6

> <PUBCHEM_COORDINATE_TYPE>
2
5
10

$$$$
127031819
  -OEChem-05102415033D

 40 42  0     1  0  0  0  0  0999 V2000
    6.9685   -1.9777    0.5239 F   0  0  0  0  0  0  0  0  0  0  0  0
    1.2483   -0.6645   -1.0146 O   0  0  0  0  0  0  0  0  0  0  0  0
   -5.5252   -2.2602   -0.9483 O   0  0  0  0  0  0  0  0  0  0  0  0
   -0.0702    0.8724    0.1806 N   0  0  0  0  0  0  0  0  0  0  0  0
    1.5339    3.4339   -0.7795 N   0  0  0  0  0  0  0  0  0  0  0  0
   -6.3162   -0.4824    0.2864 N   0  0  0  0  0  0  0  0  0  0  0  0
    2.3394    1.2235    0.0297 C   0  0  1  0  0  0  0  0  0  0  0  0
    3.5855    0.3619    0.1627 C   0  0  0  0  0  0  0  0  0  0  0  0
    2.5052    2.3644   -0.9949 C   0  0  0  0  0  0  0  0  0  0  0  0
    1.1278    0.3514   -0.3355 C   0  0  0  0  0  0  0  0  0  0  0  0
   -1.3611    0.3575    0.0543 C   0  0  0  0  0  0  0  0  0  0  0  0
   -3.7331    0.5145    0.5162 C   0  0  0  0  0  0  0  0  0  0  0  0
   -3.9366   -0.6774   -0.1995 C   0  0  0  0  0  0  0  0  0  0  0  0
   -2.4377    1.0271    0.6389 C   0  0  0  0  0  0  0  0  0  0  0  0
    3.9196   -0.1952    1.3970 C   0  0  0  0  0  0  0  0  0  0  0  0
    4.3944    0.1286   -0.9496 C   0  0  0  0  0  0  0  0  0  0  0  0
   -1.5710   -0.8255   -0.6549 C   0  0  0  0  0  0  0  0  0  0  0  0
   -2.8580   -1.3472   -0.7846 C   0  0  0  0  0  0  0  0  0  0  0  0
   -4.8734    1.2025    1.1217 C   0  0  0  0  0  0  0  0  0  0  0  0
   -5.3158   -1.2215   -0.3296 C   0  0  0  0  0  0  0  0  0  0  0  0
    5.0624   -0.9853    1.5194 C   0  0  0  0  0  0  0  0  0  0  0  0
    5.5373   -0.6614   -0.8274 C   0  0  0  0  0  0  0  0  0  0  0  0
    5.8713   -1.2185    0.4071 C   0  0  0  0  0  0  0  0  0  0  0  0
   -6.0953    0.6792    0.9804 C   0  0  0  0  0  0  0  0  0  0  0  0
    2.1628    1.6735    1.0175 H   0  0  0  0  0  0  0  0  0  0  0  0
    2.3791    1.9932   -2.0185 H   0  0  0  0  0  0  0  0  0  0  0  0
    3.5053    2.8077   -0.9199 H   0  0  0  0  0  0  0  0  0  0  0  0
   -0.0011    1.7377    0.7119 H   0  0  0  0  0  0  0  0  0  0  0  0
   -2.2670    1.9495    1.1909 H   0  0  0  0  0  0  0  0  0  0  0  0
    3.2966   -0.0237    2.2708 H   0  0  0  0  0  0  0  0  0  0  0  0
    4.1542    0.5322   -1.9283 H   0  0  0  0  0  0  0  0  0  0  0  0
   -0.7877   -1.3980   -1.1311 H   0  0  0  0  0  0  0  0  0  0  0  0
   -3.0008   -2.2697   -1.3403 H   0  0  0  0  0  0  0  0  0  0  0  0
    1.7139    4.1914   -1.4371 H   0  0  0  0  0  0  0  0  0  0  0  0
    1.6590    3.8281    0.1520 H   0  0  0  0  0  0  0  0  0  0  0  0
   -4.7138    2.1216    1.6732 H   0  0  0  0  0  0  0  0  0  0  0  0
    5.3225   -1.4198    2.4800 H   0  0  0  0  0  0  0  0  0  0  0  0
    6.1655   -0.8468   -1.6937 H   0  0  0  0  0  0  0  0  0  0  0  0
   -6.9749    1.1455    1.4070 H   0  0  0  0  0  0  0  0  0  0  0  0
   -7.2741   -0.8148    0.2246 H   0  0  0  0  0  0  0  0  0  0  0  0
  1 23  1  0  0  0  0
  2 10  2  0  0  0  0
  3 20  2  0  0  0  0
  4 10  1  0  0  0  0
  4 11  1  0  0  0  0
  4 28  1  0  0  0  0
  5  9  1  0  0  0  0
  5 34  1  0  0  0  0
  5 35  1  0  0  0  0
  6 20  1  0  0  0  0
  6 24  1  0  0  0  0
  6 40  1  0  0  0  0
  7  8  1  0  0  0  0
  7  9  1  0  0  0  0
  7 10  1  0  0  0  0
  7 25  1  0  0  0  0
  8 15  2  0  0  0  0
  8 16  1  0  0  0  0
  9 26  1  0  0  0  0
  9 27  1  0  0  0  0
 11 14  2  0  0  0  0
 11 17  1  0  0  0  0
 12 13  2  0  0  0  0
 12 14  1  0  0  0  0
 12 19  1  0  0  0  0
 13 18  1  0  0  0  0
 13 20  1  0  0  0  0
 14 29  1  0  0  0  0
 15 21  1  0  0  0  0
 15 30  1  0  0  0  0
 16 22  2  0  0  0  0
 16 31  1  0  0  0  0
 17 18  2  0  0  0  0
 17 32  1  0  0  0  0
 18 33  1  0  0  0  0
 19 24  2  0  0  0  0
 19 36  1  0  0  0  0
 21 23  2  0  0  0  0
 21 37  1  0  0  0  0
 22 23  1  0  0  0  0
 22 38  1  0  0  0  0
 24 39  1  0  0  0  0
M  END
> <PUBCHEM_COMPOUND_CID>
127031819

> <PUBCHEM_CONFORMER_RMSD>
0.8

> <PUBCHEM_CONFORMER_DIVERSEORDER>
1
36
8
32
28
29
17
12
21
27
25
16
4
26
5
18
23
3
37
19
35
10
7
20
38
33
9
13
31
34
6
22
30
14
11
15
24
2

> <PUBCHEM_MMFF94_PARTIAL_CHARGES>
37
1 -0.19
10 0.57
11 0.12
12 0.03
13 0.09
14 -0.15
15 -0.15
16 -0.15
17 -0.15
18 -0.15
19 -0.18
2 -0.57
20 0.54
21 -0.15
22 -0.15
23 0.19
24 -0.04
28 0.37
29 0.15
3 -0.57
30 0.15
31 0.15
32 0.15
33 0.15
34 0.36
35 0.36
36 0.15
37 0.15
38 0.15
39 0.15
4 -0.55
40 0.37
5 -0.99
6 -0.54
7 0.2
8 -0.14
9 0.27

> <PUBCHEM_EFFECTIVE_ROTOR_COUNT>
5

> <PUBCHEM_PHARMACOPHORE_FEATURES>
9
1 2 acceptor
1 3 acceptor
1 4 donor
1 5 cation
1 5 donor
1 6 donor
6 11 12 13 14 17 18 rings
6 6 12 13 19 20 24 rings
6 8 15 16 21 22 23 rings

> <PUBCHEM_HEAVY_ATOM_COUNT>
24

> <PUBCHEM_ATOM_DEF_STEREO_COUNT>
0

> <PUBCHEM_ATOM_UDEF_STEREO_COUNT>
1

> <PUBCHEM_BOND_DEF_STEREO_COUNT>
0

> <PUBCHEM_BOND_UDEF_STEREO_COUNT>
0

> <PUBCHEM_ISOTOPIC_ATOM_COUNT>
0

> <PUBCHEM_COMPONENT_COUNT>
1

> <PUBCHEM_CACTVS_TAUTO_COUNT>
69

> <PUBCHEM_CONFORMER_ID>
07925A0B00000001

> <PUBCHEM_MMFF94_ENERGY>
66.5066

> <PUBCHEM_FEATURE_SELFOVERLAP>
45.697

> <PUBCHEM_SHAPE_FINGERPRINT>
10 15 16845283960726386802
10299344 5 18409170996120882858
10319926 262 17775282772540909091
10366900 7 17095239224381219009
12107183 9 18339366258263656905
12166972 35 18343022215624241432
12236239 1 18411983576285751417
12516196 113 18333447634658279520
12596602 18 18059850679976967442
12616971 3 18410300237591344673
12633257 1 18408887347225822671
13073987 5 18270963582599606681
13533116 47 18335982072984054864
13668630 136 17530967973007988850
13685833 64 18113336397487870210
13862211 1 18407759218700535954
13911852 28 18115861898277210434
13914758 101 18260540105552997765
14251764 18 18342175583702826470
14739800 52 17701535345085469424
15183329 4 18335417963262668407
15188451 53 18060127769549520599
15348495 7 17060048293792975627
15461852 350 16558742434482671757
1577012 14 18342745156316827549
17349148 13 18271811245539129013
17857418 61 18409165519425540403
1813 80 18260833670530460932
18222031 100 18408039611393019252
19489759 90 17918275346765890779
20028762 73 18343299288396909534
21033648 29 16271632396027989402
21150785 3 13695876921562772018
21267235 1 18410017632283724714
21365058 113 16443074893223826948
22061861 79 16443062798506451035
2215653 11 15719387347981247251
22950370 63 18333732395263651668
23081809 10 18411705421624676885
23402539 116 18201999932777893581
23522609 53 18118434836721800612
23559900 14 16878233068362080109
23569943 247 18117271450667511746
2767999 5 11383827169347471698
3004659 81 18343310287971145540
314194 84 17894911806717408770
345986 75 17896865591915148376
351380 3 18261109656296224450
397830 11 16271631408111988954
4073 2 18043817704600068768
4340502 62 13902193689824311605
46194498 28 15502380028416569894
465052 167 18334862723118519054
5104073 3 18201444743767001801
54039377 194 18042120956986888482
559249 180 18341611504078184127
59755656 215 17775295919451724254
67856867 119 18270400623813904329
7970288 3 18334288743805678554
9981440 41 17257085399134312544

> <PUBCHEM_SHAPE_MULTIPOLES>
459.95
17.36
2.13
1.19
0.54
1.13
-0.18
-8.11
-3.41
-0.63
0.6
-0.64
-0.02
-2.25

> <PUBCHEM_SHAPE_SELFOVERLAP>
1002.301

> <PUBCHEM_SHAPE_VOLUME>
249.4

> <PUBCHEM_COORDINATE_TYPE>
2
5
10

$$$$
127030602
  -OEChem-05102415033D

 53 56  0     1  0  0  0  0  0999 V2000
   -4.0932    0.1089    0.5563 O   0  0  0  0  0  0  0  0  0  0  0  0
    1.9530   -2.2075   -1.6572 O   0  0  0  0  0  0  0  0  0  0  0  0
    2.5572   -1.1990    0.3793 N   0  0  0  0  0  0  0  0  0  0  0  0
   -0.3728   -5.0502    0.5197 N   0  0  0  0  0  0  0  0  0  0  0  0
    7.3703    3.0295   -0.1065 N   0  0  0  0  0  0  0  0  0  0  0  0
    0.7489   -2.8366    0.3429 C   0  0  1  0  0  0  0  0  0  0  0  0
   -0.5506   -2.0488    0.4004 C   0  0  0  0  0  0  0  0  0  0  0  0
    0.5695   -4.2470   -0.2552 C   0  0  0  0  0  0  0  0  0  0  0  0
    1.8093   -2.0539   -0.4474 C   0  0  0  0  0  0  0  0  0  0  0  0
   -1.0484   -1.6130    1.6286 C   0  0  0  0  0  0  0  0  0  0  0  0
   -1.2435   -1.7599   -0.7751 C   0  0  0  0  0  0  0  0  0  0  0  0
    3.5969   -0.3408    0.0189 C   0  0  0  0  0  0  0  0  0  0  0  0
   -2.9321   -0.5996    0.5053 C   0  0  0  0  0  0  0  0  0  0  0  0
   -2.2391   -0.8885    1.6810 C   0  0  0  0  0  0  0  0  0  0  0  0
   -2.4342   -1.0354   -0.7227 C   0  0  0  0  0  0  0  0  0  0  0  0
    5.2766    1.3033    0.6444 C   0  0  0  0  0  0  0  0  0  0  0  0
    4.2297    0.4341    0.9923 C   0  0  0  0  0  0  0  0  0  0  0  0
    5.6822    1.3838   -0.7039 C   0  0  0  0  0  0  0  0  0  0  0  0
    4.0004   -0.2585   -1.3118 C   0  0  0  0  0  0  0  0  0  0  0  0
    5.0385    0.5991   -1.6751 C   0  0  0  0  0  0  0  0  0  0  0  0
   -4.7499    0.3687   -0.6836 C   0  0  0  0  0  0  0  0  0  0  0  0
    5.9309    2.0930    1.5970 C   0  0  0  0  0  0  0  0  0  0  0  0
    6.7262    2.2585   -1.0116 C   0  0  0  0  0  0  0  0  0  0  0  0
   -5.9836    1.1824   -0.4234 C   0  0  0  0  0  0  0  0  0  0  0  0
    6.9553    2.9261    1.1740 C   0  0  0  0  0  0  0  0  0  0  0  0
   -7.1996    0.5458   -0.1749 C   0  0  0  0  0  0  0  0  0  0  0  0
   -5.9141    2.5753   -0.4301 C   0  0  0  0  0  0  0  0  0  0  0  0
   -8.3464    1.3025    0.0668 C   0  0  0  0  0  0  0  0  0  0  0  0
   -7.0607    3.3321   -0.1884 C   0  0  0  0  0  0  0  0  0  0  0  0
   -8.2769    2.6955    0.0600 C   0  0  0  0  0  0  0  0  0  0  0  0
    1.1300   -2.9712    1.3655 H   0  0  0  0  0  0  0  0  0  0  0  0
    0.2260   -4.2021   -1.2953 H   0  0  0  0  0  0  0  0  0  0  0  0
    1.5386   -4.7599   -0.2685 H   0  0  0  0  0  0  0  0  0  0  0  0
   -0.5194   -1.8296    2.5527 H   0  0  0  0  0  0  0  0  0  0  0  0
   -0.8719   -2.0890   -1.7416 H   0  0  0  0  0  0  0  0  0  0  0  0
    2.3164   -1.1905    1.3681 H   0  0  0  0  0  0  0  0  0  0  0  0
   -2.6220   -0.5512    2.6403 H   0  0  0  0  0  0  0  0  0  0  0  0
   -2.9187   -0.8501   -1.6750 H   0  0  0  0  0  0  0  0  0  0  0  0
    3.9083    0.3641    2.0304 H   0  0  0  0  0  0  0  0  0  0  0  0
   -0.4545   -5.9736    0.0959 H   0  0  0  0  0  0  0  0  0  0  0  0
   -1.3027   -4.6361    0.4732 H   0  0  0  0  0  0  0  0  0  0  0  0
    3.5587   -0.8236   -2.1203 H   0  0  0  0  0  0  0  0  0  0  0  0
    5.3419    0.6525   -2.7183 H   0  0  0  0  0  0  0  0  0  0  0  0
   -5.0450   -0.5695   -1.1719 H   0  0  0  0  0  0  0  0  0  0  0  0
   -4.0991    0.9389   -1.3598 H   0  0  0  0  0  0  0  0  0  0  0  0
    5.6531    2.0643    2.6462 H   0  0  0  0  0  0  0  0  0  0  0  0
    7.0874    2.3684   -2.0305 H   0  0  0  0  0  0  0  0  0  0  0  0
    7.4862    3.5536    1.8826 H   0  0  0  0  0  0  0  0  0  0  0  0
   -7.2663   -0.5389   -0.1646 H   0  0  0  0  0  0  0  0  0  0  0  0
   -4.9723    3.0834   -0.6199 H   0  0  0  0  0  0  0  0  0  0  0  0
   -9.2932    0.8070    0.2609 H   0  0  0  0  0  0  0  0  0  0  0  0
   -7.0066    4.4168   -0.1930 H   0  0  0  0  0  0  0  0  0  0  0  0
   -9.1696    3.2847    0.2485 H   0  0  0  0  0  0  0  0  0  0  0  0
  1 13  1  0  0  0  0
  1 21  1  0  0  0  0
  2  9  2  0  0  0  0
  3  9  1  0  0  0  0
  3 12  1  0  0  0  0
  3 36  1  0  0  0  0
  4  8  1  0  0  0  0
  4 40  1  0  0  0  0
  4 41  1  0  0  0  0
  5 23  2  0  0  0  0
  5 25  1  0  0  0  0
  6  7  1  0  0  0  0
  6  8  1  0  0  0  0
  6  9  1  0  0  0  0
  6 31  1  0  0  0  0
  7 10  2  0  0  0  0
  7 11  1  0  0  0  0
  8 32  1  0  0  0  0
  8 33  1  0  0  0  0
 10 14  1  0  0  0  0
 10 34  1  0  0  0  0
 11 15  2  0  0  0  0
 11 35  1  0  0  0  0
 12 17  2  0  0  0  0
 12 19  1  0  0  0  0
 13 14  2  0  0  0  0
 13 15  1  0  0  0  0
 14 37  1  0  0  0  0
 15 38  1  0  0  0  0
 16 17  1  0  0  0  0
 16 18  2  0  0  0  0
 16 22  1  0  0  0  0
 17 39  1  0  0  0  0
 18 20  1  0  0  0  0
 18 23  1  0  0  0  0
 19 20  2  0  0  0  0
 19 42  1  0  0  0  0
 20 43  1  0  0  0  0
 21 24  1  0  0  0  0
 21 44  1  0  0  0  0
 21 45  1  0  0  0  0
 22 25  2  0  0  0  0
 22 46  1  0  0  0  0
 23 47  1  0  0  0  0
 24 26  2  0  0  0  0
 24 27  1  0  0  0  0
 25 48  1  0  0  0  0
 26 28  1  0  0  0  0
 26 49  1  0  0  0  0
 27 29  2  0  0  0  0
 27 50  1  0  0  0  0
 28 30  2  0  0  0  0
 28 51  1  0  0  0  0
 29 30  1  0  0  0  0
 29 52  1  0  0  0  0
 30 53  1  0  0  0  0
M  END
> <PUBCHEM_COMPOUND_CID>
127030602

> <PUBCHEM_CONFORMER_RMSD>
1

> <PUBCHEM_CONFORMER_DIVERSEORDER>
1
112
66
102
17
114
11
124
154
106
13
52
63
140
123
43
141
176
83
29
26
68
167
194
169
134
73
117
152
45
186
33
118
187
53
2
156
46
113
178
74
44
84
82
92
87
100
8
58
9
168
96
155
143
170
138
188
54
24
10
153
75
81
131
183
125
57
98
136
23
162
42
132
12
128
185
59
160
133
95
151
159
164
89
28
150
93
76
55
60
3
90
97
180
15
70
192
122
67
91
115
18
142
38
41
172
40
165
147
129
30
5
50
80
85
109
116
71
78
175
7
110
101
35
65
182
177
181
119
21
77
36
99
20
171
72
137
163
179
174
108
47
149
37
103
157
104
34
184
56
166
16
146
88
48
49
62
111
121
107
161
25
4
79
158
86
94
51
61
144
191
22
190
64
27
193
14
69
148
130
173
189
135
32
19
39
120
127
139
105
126
6
145
31

> <PUBCHEM_MMFF94_PARTIAL_CHARGES>
46
1 -0.36
10 -0.15
11 -0.15
12 0.12
13 0.08
14 -0.15
15 -0.15
17 -0.15
19 -0.15
2 -0.57
20 -0.15
21 0.42
22 -0.15
23 0.16
24 -0.14
25 0.16
26 -0.15
27 -0.15
28 -0.15
29 -0.15
3 -0.55
30 -0.15
34 0.15
35 0.15
36 0.37
37 0.15
38 0.15
39 0.15
4 -0.99
40 0.36
41 0.36
42 0.15
43 0.15
46 0.15
47 0.15
48 0.15
49 0.15
5 -0.62
50 0.15
51 0.15
52 0.15
53 0.15
6 0.2
7 -0.14
8 0.27
9 0.57

> <PUBCHEM_EFFECTIVE_ROTOR_COUNT>
8

> <PUBCHEM_PHARMACOPHORE_FEATURES>
10
1 1 acceptor
1 2 acceptor
1 3 donor
1 4 cation
1 4 donor
1 5 acceptor
6 12 16 17 18 19 20 rings
6 24 26 27 28 29 30 rings
6 5 16 18 22 23 25 rings
6 7 10 11 13 14 15 rings

> <PUBCHEM_HEAVY_ATOM_COUNT>
30

> <PUBCHEM_ATOM_DEF_STEREO_COUNT>
0

> <PUBCHEM_ATOM_UDEF_STEREO_COUNT>
1

> <PUBCHEM_BOND_DEF_STEREO_COUNT>
0

> <PUBCHEM_BOND_UDEF_STEREO_COUNT>
0

> <PUBCHEM_ISOTOPIC_ATOM_COUNT>
0

> <PUBCHEM_COMPONENT_COUNT>
1

> <PUBCHEM_CACTVS_TAUTO_COUNT>
20

> <PUBCHEM_CONFORMER_ID>
0792554A00000001

> <PUBCHEM_MMFF94_ENERGY>
95.9285

> <PUBCHEM_FEATURE_SELFOVERLAP>
50.774

> <PUBCHEM_SHAPE_FINGERPRINT>
10319688 67 16732709346457710625
10533779 1 18337941355255221108
10673678 19 18341051822500189399
10838868 160 18340759386830632953
10981352 41 10881404248650988512
11135609 127 18266451011112491895
11135609 187 18411981343583532249
11135609 201 18334004000326453391
11409948 41 15912784782778472892
11421887 103 18339067298307383116
11761917 87 10303521871596084677
1200032 147 18260828194204266698
12342043 65 11170179987365847382
12522641 68 18201720690689130518
12895837 130 18340485672748322485
12988421 55 17603852434139329163
13248334 5 18122060910053646298
13383661 66 11675417614854468144
13540713 4 18263947512677277491
1361 87 13326276144021249197
13785724 45 9439395840029469627
14251764 30 9295294940918878236
14294032 229 18339367495188130571
14359421 15 12319464268247547925
14565420 104 18260265205406891459
14617042 71 18341335497128410065
14904525 67 17973720278393369421
14931854 50 17561088007492706496
15152005 290 18410574019906893492
15152005 77 11746924408989960657
15198563 99 17696464465956227495
15324884 4 17972918862332030395
15439362 3 18411700963866095574
15510800 12 8574437508214545649
15513586 35 16736654574123523484
15803439 3 16917351467443534798
16120349 189 18337393837397764966
16126227 98 18410009962121019629
16993089 31 13110383746674879797
16994733 274 18408880737988559473
19053607 189 18114196223638047773
19301679 30 10665220445498129282
19303781 99 9439131884440462352
19304671 126 17988932132487762124
19438510 23 18186800287818653153
20165401 70 8069443921602380321
2026 5 9007051362946034497
20501277 180 18196087743372772989
20587220 17 18267859476833603173
20691028 202 18337390543242686788
21033648 29 18260833726122533326
21298829 104 18410292523281857837
21307412 95 13038898963418397053
21424621 283 18410291419474710351
21585481 104 16486710060360980001
21585481 151 10809337819860226769
21682296 61 9439395844577183429
23522609 53 17243022517599448580
23569943 247 10664101152105791005
24771293 8 18187365428991794669
25269216 80 17203033193560110269
270888 7 18410291428048736222
2748736 6 18409161121363451924
2835820 40 18123753054966294089
2838139 119 18340760460144493903
3246875 12 18407761443799524587
34797466 226 18058732382705615775
3504750 166 11241974789903872281
3627633 1 17618503624053657031
3862424 121 13541881595505308669
3918712 181 18342170068417186592
393628 194 18335700606450190581
406291 66 8862939481440738173
4073 2 18335143056335783051
4112364 45 18114170900574524770
439807 62 11167945761920235009
44249763 50 17988348381791103660
5109719 28 18409176489521133497
5219985 13 18409446990102308086
5372103 7 18131350834473281220
5718773 13 9295289443392634685
57816373 69 8574417717490308441
58260988 647 10087627226968150783
59682541 52 16702307823863148796
6327066 14 18411701023615114830
636775 8 9078850606110732056
6695519 79 18194152709949267675
6712543 237 15140681384507833137
9849439 229 18409445886559229522
9980921 177 18114732743143256544

> <PUBCHEM_SHAPE_MULTIPOLES>
590.7
24.36
4.93
1.37
20.38
3.54
0.1
-37.27
-1.05
-0.87
0.36
-1.73
0.01
1.55

> <PUBCHEM_SHAPE_SELFOVERLAP>
1290.401

> <PUBCHEM_SHAPE_VOLUME>
318

> <PUBCHEM_COORDINATE_TYPE>
2
5
10

$$$$
46938262
  -OEChem-05102415033D

 55 58  0     1  0  0  0  0  0999 V2000
    2.6136   -2.3830   -1.6611 O   0  0  0  0  0  0  0  0  0  0  0  0
   -3.9243   -1.7663    0.2621 O   0  0  0  0  0  0  0  0  0  0  0  0
   -3.2497    0.4607    0.0403 O   0  0  0  0  0  0  0  0  0  0  0  0
    2.8331   -1.2236    0.3728 N   0  0  0  0  0  0  0  0  0  0  0  0
    1.0507   -5.7231    0.4908 N   0  0  0  0  0  0  0  0  0  0  0  0
    6.3402    4.1452   -0.0265 N   0  0  0  0  0  0  0  0  0  0  0  0
    1.5385   -3.2905    0.3052 C   0  0  1  0  0  0  0  0  0  0  0  0
    0.0730   -2.8840    0.2940 C   0  0  0  0  0  0  0  0  0  0  0  0
    1.7735   -4.7040   -0.2659 C   0  0  0  0  0  0  0  0  0  0  0  0
    2.3811   -2.2592   -0.4619 C   0  0  0  0  0  0  0  0  0  0  0  0
   -0.5770   -2.5846    1.4914 C   0  0  0  0  0  0  0  0  0  0  0  0
   -0.6204   -2.8083   -0.9139 C   0  0  0  0  0  0  0  0  0  0  0  0
    3.6167   -0.1201    0.0325 C   0  0  0  0  0  0  0  0  0  0  0  0
   -1.9205   -2.2095    1.4807 C   0  0  0  0  0  0  0  0  0  0  0  0
   -1.9637   -2.4332   -0.9246 C   0  0  0  0  0  0  0  0  0  0  0  0
   -2.6139   -2.1339    0.2726 C   0  0  0  0  0  0  0  0  0  0  0  0
    4.7607    1.9253    0.6836 C   0  0  0  0  0  0  0  0  0  0  0  0
    3.9737    0.8092    1.0112 C   0  0  0  0  0  0  0  0  0  0  0  0
    5.1874    2.0965   -0.6497 C   0  0  0  0  0  0  0  0  0  0  0  0
    4.0401    0.0524   -1.2831 C   0  0  0  0  0  0  0  0  0  0  0  0
    4.8225    1.1550   -1.6263 C   0  0  0  0  0  0  0  0  0  0  0  0
    5.1353    2.8742    1.6419 C   0  0  0  0  0  0  0  0  0  0  0  0
    5.9684    3.2176   -0.9374 C   0  0  0  0  0  0  0  0  0  0  0  0
   -5.6192   -0.0976    0.1367 C   0  0  0  0  0  0  0  0  0  0  0  0
   -4.1344   -0.3794    0.1360 C   0  0  0  0  0  0  0  0  0  0  0  0
   -5.9380    1.3651   -0.0328 C   0  0  0  0  0  0  0  0  0  0  0  0
    5.9137    3.9487    1.2392 C   0  0  0  0  0  0  0  0  0  0  0  0
   -6.0576    2.1875    1.0873 C   0  0  0  0  0  0  0  0  0  0  0  0
   -6.1135    1.8968   -1.3104 C   0  0  0  0  0  0  0  0  0  0  0  0
   -6.3529    3.5417    0.9302 C   0  0  0  0  0  0  0  0  0  0  0  0
   -6.4088    3.2510   -1.4677 C   0  0  0  0  0  0  0  0  0  0  0  0
   -6.5286    4.0734   -0.3474 C   0  0  0  0  0  0  0  0  0  0  0  0
    1.8968   -3.3042    1.3447 H   0  0  0  0  0  0  0  0  0  0  0  0
    2.8448   -4.9350   -0.2297 H   0  0  0  0  0  0  0  0  0  0  0  0
    1.4763   -4.7667   -1.3192 H   0  0  0  0  0  0  0  0  0  0  0  0
   -0.0499   -2.6383    2.4401 H   0  0  0  0  0  0  0  0  0  0  0  0
   -0.1330   -3.0353   -1.8578 H   0  0  0  0  0  0  0  0  0  0  0  0
    2.5562   -1.2686    1.3510 H   0  0  0  0  0  0  0  0  0  0  0  0
   -2.4210   -1.9776    2.4169 H   0  0  0  0  0  0  0  0  0  0  0  0
   -2.4980   -2.3759   -1.8691 H   0  0  0  0  0  0  0  0  0  0  0  0
    3.6385    0.6672    2.0376 H   0  0  0  0  0  0  0  0  0  0  0  0
    0.0465   -5.5773    0.3988 H   0  0  0  0  0  0  0  0  0  0  0  0
    1.2403   -6.6392    0.0861 H   0  0  0  0  0  0  0  0  0  0  0  0
    3.8030   -0.6209   -2.0946 H   0  0  0  0  0  0  0  0  0  0  0  0
    5.1449    1.2760   -2.6581 H   0  0  0  0  0  0  0  0  0  0  0  0
    4.8306    2.7840    2.6801 H   0  0  0  0  0  0  0  0  0  0  0  0
    6.3301    3.4090   -1.9439 H   0  0  0  0  0  0  0  0  0  0  0  0
   -6.0831   -0.6707   -0.6748 H   0  0  0  0  0  0  0  0  0  0  0  0
   -6.0413   -0.4601    1.0815 H   0  0  0  0  0  0  0  0  0  0  0  0
    6.2241    4.7051    1.9527 H   0  0  0  0  0  0  0  0  0  0  0  0
   -5.9211    1.7854    2.0877 H   0  0  0  0  0  0  0  0  0  0  0  0
   -6.0208    1.2668   -2.1910 H   0  0  0  0  0  0  0  0  0  0  0  0
   -6.4455    4.1822    1.8024 H   0  0  0  0  0  0  0  0  0  0  0  0
   -6.5450    3.6652   -2.4624 H   0  0  0  0  0  0  0  0  0  0  0  0
   -6.7582    5.1279   -0.4698 H   0  0  0  0  0  0  0  0  0  0  0  0
  1 10  2  0  0  0  0
  2 16  1  0  0  0  0
  2 25  1  0  0  0  0
  3 25  2  0  0  0  0
  4 10  1  0  0  0  0
  4 13  1  0  0  0  0
  4 38  1  0  0  0  0
  5  9  1  0  0  0  0
  5 42  1  0  0  0  0
  5 43  1  0  0  0  0
  6 23  2  0  0  0  0
  6 27  1  0  0  0  0
  7  8  1  0  0  0  0
  7  9  1  0  0  0  0
  7 10  1  0  0  0  0
  7 33  1  0  0  0  0
  8 11  2  0  0  0  0
  8 12  1  0  0  0  0
  9 34  1  0  0  0  0
  9 35  1  0  0  0  0
 11 14  1  0  0  0  0
 11 36  1  0  0  0  0
 12 15  2  0  0  0  0
 12 37  1  0  0  0  0
 13 18  2  0  0  0  0
 13 20  1  0  0  0  0
 14 16  2  0  0  0  0
 14 39  1  0  0  0  0
 15 16  1  0  0  0  0
 15 40  1  0  0  0  0
 17 18  1  0  0  0  0
 17 19  2  0  0  0  0
 17 22  1  0  0  0  0
 18 41  1  0  0  0  0
 19 21  1  0  0  0  0
 19 23  1  0  0  0  0
 20 21  2  0  0  0  0
 20 44  1  0  0  0  0
 21 45  1  0  0  0  0
 22 27  2  0  0  0  0
 22 46  1  0  0  0  0
 23 47  1  0  0  0  0
 24 25  1  0  0  0  0
 24 26  1  0  0  0  0
 24 48  1  0  0  0  0
 24 49  1  0  0  0  0
 26 28  2  0  0  0  0
 26 29  1  0  0  0  0
 27 50  1  0  0  0  0
 28 30  1  0  0  0  0
 28 51  1  0  0  0  0
 29 31  2  0  0  0  0
 29 52  1  0  0  0  0
 30 32  2  0  0  0  0
 30 53  1  0  0  0  0
 31 32  1  0  0  0  0
 31 54  1  0  0  0  0
 32 55  1  0  0  0  0
M  END
> <PUBCHEM_COMPOUND_CID>
46938262

> <PUBCHEM_CONFORMER_RMSD>
1

> <PUBCHEM_CONFORMER_DIVERSEORDER>
1
7
78
154
107
59
174
65
120
87
147
90
140
124
182
73
139
112
89
44
84
127
19
177
79
117
26
109
98
14
173
76
153
148
30
152
113
143
172
119
178
133
4
86
53
43
135
31
57
145
66
189
51
185
176
142
169
106
132
150
56
168
81
156
99
149
103
27
96
130
52
41
40
45
146
183
116
63
105
60
21
62
175
72
163
28
164
170
39
187
54
126
131
165
67
111
18
35
74
17
55
129
5
186
180
161
94
102
138
36
134
80
75
83
12
159
70
48
37
88
100
118
22
101
114
93
141
160
121
85
82
122
171
34
162
167
136
158
46
38
9
58
179
125
10
95
49
115
71
181
108
128
13
20
69
61
25
166
137
144
64
23
123
3
97
157
16
188
77
151
184
110
68
50
155
33
42
104
91
32
8
11
6
29
2
24
92
15
47

> <PUBCHEM_MMFF94_PARTIAL_CHARGES>
48
1 -0.57
10 0.57
11 -0.15
12 -0.15
13 0.12
14 -0.15
15 -0.15
16 0.08
18 -0.15
2 -0.23
20 -0.15
21 -0.15
22 -0.15
23 0.16
24 0.2
25 0.66
26 -0.14
27 0.16
28 -0.15
29 -0.15
3 -0.57
30 -0.15
31 -0.15
32 -0.15
36 0.15
37 0.15
38 0.37
39 0.15
4 -0.55
40 0.15
41 0.15
42 0.36
43 0.36
44 0.15
45 0.15
46 0.15
47 0.15
5 -0.99
50 0.15
51 0.15
52 0.15
53 0.15
54 0.15
55 0.15
6 -0.62
7 0.2
8 -0.14
9 0.27

> <PUBCHEM_EFFECTIVE_ROTOR_COUNT>
9

> <PUBCHEM_PHARMACOPHORE_FEATURES>
10
1 1 acceptor
1 3 acceptor
1 4 donor
1 5 cation
1 5 donor
1 6 acceptor
6 13 17 18 19 20 21 rings
6 26 28 29 30 31 32 rings
6 6 17 19 22 23 27 rings
6 8 11 12 14 15 16 rings

> <PUBCHEM_HEAVY_ATOM_COUNT>
32

> <PUBCHEM_ATOM_DEF_STEREO_COUNT>
0

> <PUBCHEM_ATOM_UDEF_STEREO_COUNT>
1

> <PUBCHEM_BOND_DEF_STEREO_COUNT>
0

> <PUBCHEM_BOND_UDEF_STEREO_COUNT>
0

> <PUBCHEM_ISOTOPIC_ATOM_COUNT>
0

> <PUBCHEM_COMPONENT_COUNT>
1

> <PUBCHEM_CACTVS_TAUTO_COUNT>
3

> <PUBCHEM_CONFORMER_ID>
02CC389600000001

> <PUBCHEM_MMFF94_ENERGY>
96.5274

> <PUBCHEM_FEATURE_SELFOVERLAP>
50.774

> <PUBCHEM_SHAPE_FINGERPRINT>
10675989 125 18338798888435252336
10771551 21 18129386990309810928
10864689 126 18341336677912015876
11059845 2 18123158416885399842
11386260 185 17909543957236697559
11479125 193 18410019806175955081
11828422 8 18337685126539109366
13944108 23 18267870471649089096
14068700 686 18410301341414660507
14251764 75 18411985728592017401
14429114 114 18410010992934795697
15198563 99 17694781126707815671
15400415 2 18410575101927915817
15513586 35 16376641533396116662
15530120 55 17560500843009348277
15980000 95 17690565183068864894
19053607 189 18411688890037637840
19304671 126 17917724477981103196
19309040 13 18343299237246912895
19438510 23 18260548956483719034
20058555 10 18410573964410415829
20691028 202 18336828710028079380
20775438 99 10806773758548834637
21033648 29 18264778838383690182
21307412 95 10015323282038277587
21792938 324 17614816558513506170
22033318 11 17821997749468467912
23191077 185 18340195380014732127
23522609 53 17315919056247507684
23569914 2 17316726973428090461
2748736 6 18409719665007540061
2835820 82 9366759899029023401
2838139 119 18413385432453217319
3418910 222 16607450009672678016
3525247 18 18340483469051876401
376196 1 18408608054146226818
3862424 121 13038329476440543469
3918712 181 18335691746576074133
3991529 202 9582947056667087789
437795 171 18261948527824139461
44249763 50 17701530947264752160
508706 21 17767401654014186354
5219985 13 18338797922162724902
56633871 153 11169909524010213089
6036956 94 17831019396254675501
6058803 2 18268403824936447183
6677587 24 17561079185766790732
9849439 229 18409726304884470506

> <PUBCHEM_SHAPE_MULTIPOLES>
625.99
19.8
7.7
1.47
14.36
2.69
-0.06
-35.69
-1.21
-3.26
0.7
-0.56
-0.5
1.89

> <PUBCHEM_SHAPE_SELFOVERLAP>
1366.265

> <PUBCHEM_SHAPE_VOLUME>
335.1

> <PUBCHEM_COORDINATE_TYPE>
2
5
10

$$$$
127027883
  -OEChem-05102415033D

 58 61  0     1  0  0  0  0  0999 V2000
    3.6510    0.9227    0.2395 O   0  0  0  0  0  0  0  0  0  0  0  0
   -2.7719    2.3437   -1.6509 O   0  0  0  0  0  0  0  0  0  0  0  0
    2.7171   -1.2030    0.0371 O   0  0  0  0  0  0  0  0  0  0  0  0
   -3.1233    1.2254    0.3875 N   0  0  0  0  0  0  0  0  0  0  0  0
   -0.7902    5.4660    0.4828 N   0  0  0  0  0  0  0  0  0  0  0  0
   -7.2775   -3.6625    0.0227 N   0  0  0  0  0  0  0  0  0  0  0  0
   -1.5802    3.1135    0.3069 C   0  0  1  0  0  0  0  0  0  0  0  0
   -0.1774    2.5265    0.2888 C   0  0  0  0  0  0  0  0  0  0  0  0
   -1.6395    4.5440   -0.2669 C   0  0  0  0  0  0  0  0  0  0  0  0
   -2.5500    2.1944   -0.4525 C   0  0  0  0  0  0  0  0  0  0  0  0
    0.4952    2.3639   -0.9224 C   0  0  0  0  0  0  0  0  0  0  0  0
    0.4368    2.1505    1.4835 C   0  0  0  0  0  0  0  0  0  0  0  0
   -4.0410    0.2281    0.0547 C   0  0  0  0  0  0  0  0  0  0  0  0
    1.7818    1.8252   -0.9389 C   0  0  0  0  0  0  0  0  0  0  0  0
    1.7232    1.6116    1.4670 C   0  0  0  0  0  0  0  0  0  0  0  0
    2.3958    1.4489    0.2557 C   0  0  0  0  0  0  0  0  0  0  0  0
   -4.5057   -0.6472    1.0379 C   0  0  0  0  0  0  0  0  0  0  0  0
   -5.4283   -1.6566    0.7178 C   0  0  0  0  0  0  0  0  0  0  0  0
   -5.8810   -1.7754   -0.6125 C   0  0  0  0  0  0  0  0  0  0  0  0
   -4.4907    0.1075   -1.2580 C   0  0  0  0  0  0  0  0  0  0  0  0
   -5.4070   -0.8890   -1.5937 C   0  0  0  0  0  0  0  0  0  0  0  0
    5.0888   -0.9674    0.1066 C   0  0  0  0  0  0  0  0  0  0  0  0
    5.5897   -1.6881   -0.9777 C   0  0  0  0  0  0  0  0  0  0  0  0
   -5.9128   -2.5493    1.6807 C   0  0  0  0  0  0  0  0  0  0  0  0
    3.6900   -0.4682    0.1168 C   0  0  0  0  0  0  0  0  0  0  0  0
    7.7234   -1.8845    0.1386 C   0  0  0  0  0  0  0  0  0  0  0  0
    6.9070   -2.1467   -0.9617 C   0  0  0  0  0  0  0  0  0  0  0  0
    5.9054   -0.7050    1.2067 C   0  0  0  0  0  0  0  0  0  0  0  0
   -6.7980   -2.7906   -0.8927 C   0  0  0  0  0  0  0  0  0  0  0  0
    7.2225   -1.1637    1.2228 C   0  0  0  0  0  0  0  0  0  0  0  0
    4.7373   -1.9819   -2.1689 C   0  0  0  0  0  0  0  0  0  0  0  0
   -6.8222   -3.5185    1.2854 C   0  0  0  0  0  0  0  0  0  0  0  0
    9.1318   -2.3743    0.1573 C   0  0  0  0  0  0  0  0  0  0  0  0
   -1.9280    3.1742    1.3483 H   0  0  0  0  0  0  0  0  0  0  0  0
   -1.3431    4.5668   -1.3221 H   0  0  0  0  0  0  0  0  0  0  0  0
   -2.6732    4.9076   -0.2253 H   0  0  0  0  0  0  0  0  0  0  0  0
    0.0350    2.6486   -1.8644 H   0  0  0  0  0  0  0  0  0  0  0  0
   -0.0746    2.2707    2.4347 H   0  0  0  0  0  0  0  0  0  0  0  0
   -2.8372    1.2373    1.3640 H   0  0  0  0  0  0  0  0  0  0  0  0
    2.3002    1.7008   -1.8858 H   0  0  0  0  0  0  0  0  0  0  0  0
    2.1960    1.3208    2.4012 H   0  0  0  0  0  0  0  0  0  0  0  0
   -4.1491   -0.5464    2.0619 H   0  0  0  0  0  0  0  0  0  0  0  0
   -0.8658    6.3979    0.0767 H   0  0  0  0  0  0  0  0  0  0  0  0
    0.1873    5.1953    0.3855 H   0  0  0  0  0  0  0  0  0  0  0  0
   -4.1760    0.7442   -2.0726 H   0  0  0  0  0  0  0  0  0  0  0  0
   -5.7482   -0.9707   -2.6233 H   0  0  0  0  0  0  0  0  0  0  0  0
   -5.5929   -2.4960    2.7169 H   0  0  0  0  0  0  0  0  0  0  0  0
    7.3012   -2.7116   -1.8032 H   0  0  0  0  0  0  0  0  0  0  0  0
    5.5271   -0.1481    2.0601 H   0  0  0  0  0  0  0  0  0  0  0  0
   -7.1869   -2.9371   -1.8967 H   0  0  0  0  0  0  0  0  0  0  0  0
    7.8477   -0.9552    2.0870 H   0  0  0  0  0  0  0  0  0  0  0  0
    3.9673   -2.7173   -1.9149 H   0  0  0  0  0  0  0  0  0  0  0  0
    4.2603   -1.0694   -2.5422 H   0  0  0  0  0  0  0  0  0  0  0  0
    5.3262   -2.3918   -2.9969 H   0  0  0  0  0  0  0  0  0  0  0  0
   -7.2205   -4.2287    2.0028 H   0  0  0  0  0  0  0  0  0  0  0  0
    9.5575   -2.3884   -0.8519 H   0  0  0  0  0  0  0  0  0  0  0  0
    9.7701   -1.7235    0.7645 H   0  0  0  0  0  0  0  0  0  0  0  0
    9.1718   -3.3873    0.5698 H   0  0  0  0  0  0  0  0  0  0  0  0
  1 16  1  0  0  0  0
  1 25  1  0  0  0  0
  2 10  2  0  0  0  0
  3 25  2  0  0  0  0
  4 10  1  0  0  0  0
  4 13  1  0  0  0  0
  4 39  1  0  0  0  0
  5  9  1  0  0  0  0
  5 43  1  0  0  0  0
  5 44  1  0  0  0  0
  6 29  2  0  0  0  0
  6 32  1  0  0  0  0
  7  8  1  0  0  0  0
  7  9  1  0  0  0  0
  7 10  1  0  0  0  0
  7 34  1  0  0  0  0
  8 11  2  0  0  0  0
  8 12  1  0  0  0  0
  9 35  1  0  0  0  0
  9 36  1  0  0  0  0
 11 14  1  0  0  0  0
 11 37  1  0  0  0  0
 12 15  2  0  0  0  0
 12 38  1  0  0  0  0
 13 17  2  0  0  0  0
 13 20  1  0  0  0  0
 14 16  2  0  0  0  0
 14 40  1  0  0  0  0
 15 16  1  0  0  0  0
 15 41  1  0  0  0  0
 17 18  1  0  0  0  0
 17 42  1  0  0  0  0
 18 19  2  0  0  0  0
 18 24  1  0  0  0  0
 19 21  1  0  0  0  0
 19 29  1  0  0  0  0
 20 21  2  0  0  0  0
 20 45  1  0  0  0  0
 21 46  1  0  0  0  0
 22 23  2  0  0  0  0
 22 25  1  0  0  0  0
 22 28  1  0  0  0  0
 23 27  1  0  0  0  0
 23 31  1  0  0  0  0
 24 32  2  0  0  0  0
 24 47  1  0  0  0  0
 26 27  2  0  0  0  0
 26 30  1  0  0  0  0
 26 33  1  0  0  0  0
 27 48  1  0  0  0  0
 28 30  2  0  0  0  0
 28 49  1  0  0  0  0
 29 50  1  0  0  0  0
 30 51  1  0  0  0  0
 31 52  1  0  0  0  0
 31 53  1  0  0  0  0
 31 54  1  0  0  0  0
 32 55  1  0  0  0  0
 33 56  1  0  0  0  0
 33 57  1  0  0  0  0
 33 58  1  0  0  0  0
M  END
> <PUBCHEM_COMPOUND_CID>
127027883

> <PUBCHEM_CONFORMER_RMSD>
1.2

> <PUBCHEM_CONFORMER_DIVERSEORDER>
1
70
74
15
83
8
68
60
39
85
99
128
125
109
129
123
92
98
61
42
33
19
100
43
41
16
89
126
62
37
28
103
34
44
84
117
66
97
95
38
57
24
3
12
73
40
111
86
124
35
52
96
36
77
30
13
116
90
23
55
94
136
17
113
114
134
78
56
122
120
54
58
11
51
26
87
121
63
50
112
72
130
93
81
20
4
67
21
79
69
110
14
75
127
29
132
59
31
133
9
53
46
64
32
49
22
45
101
105
119
106
47
10
5
131
118
82
25
18
107
91
115
76
108
48
104
7
80
27
135
65
71
2
88
6
102

> <PUBCHEM_MMFF94_PARTIAL_CHARGES>
47
1 -0.23
10 0.57
11 -0.15
12 -0.15
13 0.12
14 -0.15
15 -0.15
16 0.08
17 -0.15
2 -0.57
20 -0.15
21 -0.15
22 0.09
23 -0.14
24 -0.15
25 0.63
26 -0.14
27 -0.15
28 -0.15
29 0.16
3 -0.57
30 -0.15
31 0.14
32 0.16
33 0.14
37 0.15
38 0.15
39 0.37
4 -0.55
40 0.15
41 0.15
42 0.15
43 0.36
44 0.36
45 0.15
46 0.15
47 0.15
48 0.15
49 0.15
5 -0.99
50 0.15
51 0.15
55 0.15
6 -0.62
7 0.2
8 -0.14
9 0.27

> <PUBCHEM_EFFECTIVE_ROTOR_COUNT>
8

> <PUBCHEM_PHARMACOPHORE_FEATURES>
10
1 2 acceptor
1 3 acceptor
1 4 donor
1 5 cation
1 5 donor
1 6 acceptor
6 13 17 18 19 20 21 rings
6 22 23 26 27 28 30 rings
6 6 18 19 24 29 32 rings
6 8 11 12 14 15 16 rings

> <PUBCHEM_HEAVY_ATOM_COUNT>
33

> <PUBCHEM_ATOM_DEF_STEREO_COUNT>
0

> <PUBCHEM_ATOM_UDEF_STEREO_COUNT>
1

> <PUBCHEM_BOND_DEF_STEREO_COUNT>
0

> <PUBCHEM_BOND_UDEF_STEREO_COUNT>
0

> <PUBCHEM_ISOTOPIC_ATOM_COUNT>
0

> <PUBCHEM_COMPONENT_COUNT>
1

> <PUBCHEM_CACTVS_TAUTO_COUNT>
200

> <PUBCHEM_CONFORMER_ID>
07924AAB00000001

> <PUBCHEM_MMFF94_ENERGY>
109.925

> <PUBCHEM_FEATURE_SELFOVERLAP>
50.774

> <PUBCHEM_SHAPE_FINGERPRINT>
10319688 140 18121502620339720373
10391435 84 18340475674106823848
11059845 2 17702128914741192857
11135609 201 9583524222645389421
11273773 46 18334851732925021231
11475781 23 10953744370660205938
11497681 19 18335423478713209956
117089 54 18335988653048344123
11756154 5 18410004451161384314
12106331 60 18339347579366236950
12218070 45 16629949049233024231
12342043 65 18342448270544122897
12717326 120 18260257569672139794
12841400 136 18410289242074218223
12975358 362 10519161407323653827
12988421 55 12895073977381729041
131258 43 18335995254571567964
13383661 66 18130240267499776818
1361 87 17532096180114019187
13631057 29 18336262341222434160
13782708 43 18199745861290577202
13947930 73 18264489653714285247
14068700 675 18260552212085045556
14359421 15 17967523597888111051
14647877 103 11023820695809917218
14950920 106 15410315754678793649
15448158 91 18272086089313155844
15467298 65 17899687965091651618
15510800 12 18410851083725669163
15685185 35 10665224831308877943
15803439 3 14273454794844347913
16096371 109 17413008148402895777
16992779 147 15911897618317217482
19246450 95 17489599927003990131
19303781 99 18336536205137717254
208703 8 18410006658763940575
21307412 95 18334845118564596469
21344244 246 18187369887289641444
21682296 61 18338236094023897307
21796203 349 17346598608067656024
21867126 195 18341326799017912334
22899556 105 18337408122955448908
23569914 152 12037100831044928776
23569914 2 12903538211324172934
25269216 80 14345796094054658475
270888 7 9295298235427819665
2747138 104 18343859996940943040
2748736 6 9222956928651038151
2838139 119 7997673291065540776
32027 91 18267019656303161587
3383291 50 18411135865738345747
3862424 121 17242190148120556115
393628 194 9367344838698159603
397638 26 9799692584794739974
406291 66 18410292544783217323
4073 2 17984420738212108716
42767 24 18412547587207351794
4330586 98 17096382780967570634
437795 139 18113903745118550942
44280117 145 18337394817320487828
4461854 278 17775565369053386670
44802255 64 17610617519096265349
4756326 101 15359103905267816436
5309563 4 18410572916411508691
56633871 153 18129659837466798135
5718773 13 18411135861447730459
636775 8 18412269398756114886
6376802 90 17837773318812394332
6431902 208 18340763758579241398
6636798 310 16056308566442065823
6691757 9 18126850391990323785
6695519 79 16486102052369671630
6712543 237 16630536141677663471
7970288 3 18338516443217841047
9980921 52 17697303381519406943
999808 66 18272367555515516758

> <PUBCHEM_SHAPE_MULTIPOLES>
646.57
24.19
5.59
1.55
19.28
5.12
-0.18
-37.64
0.98
-6.83
0.36
-0.35
-0.49
2.14

> <PUBCHEM_SHAPE_SELFOVERLAP>
1414.525

> <PUBCHEM_SHAPE_VOLUME>
347.3

> <PUBCHEM_COORDINATE_TYPE>
2
5
10

$$$$
127027885
  -OEChem-05102415033D

 51 54  0     1  0  0  0  0  0999 V2000
    2.1812   -2.4328   -1.5783 O   0  0  0  0  0  0  0  0  0  0  0  0
   -4.1453   -0.4773    0.1495 O   0  0  0  0  0  0  0  0  0  0  0  0
   -3.0591    1.5656   -0.1306 O   0  0  0  0  0  0  0  0  0  0  0  0
    2.5873   -1.2531    0.4148 N   0  0  0  0  0  0  0  0  0  0  0  0
   -0.0445   -5.3090    0.6584 N   0  0  0  0  0  0  0  0  0  0  0  0
    7.0850    3.3066   -0.0982 N   0  0  0  0  0  0  0  0  0  0  0  0
   -7.8386    1.1920   -0.0118 N   0  0  0  0  0  0  0  0  0  0  0  0
    0.9140   -3.0286    0.3927 C   0  0  1  0  0  0  0  0  0  0  0  0
   -0.4428   -2.3448    0.3278 C   0  0  0  0  0  0  0  0  0  0  0  0
    0.8776   -4.4836   -0.1177 C   0  0  0  0  0  0  0  0  0  0  0  0
    1.9561   -2.2152   -0.3910 C   0  0  0  0  0  0  0  0  0  0  0  0
   -1.0867   -2.1886   -0.8995 C   0  0  0  0  0  0  0  0  0  0  0  0
   -1.0433   -1.8735    1.4954 C   0  0  0  0  0  0  0  0  0  0  0  0
    3.5780   -0.3391    0.0531 C   0  0  0  0  0  0  0  0  0  0  0  0
    5.0884    1.4698    0.6549 C   0  0  0  0  0  0  0  0  0  0  0  0
   -2.3311   -1.5614   -0.9596 C   0  0  0  0  0  0  0  0  0  0  0  0
   -2.2876   -1.2463    1.4355 C   0  0  0  0  0  0  0  0  0  0  0  0
    4.0922    0.5436    1.0044 C   0  0  0  0  0  0  0  0  0  0  0  0
   -2.9315   -1.0902    0.2079 C   0  0  0  0  0  0  0  0  0  0  0  0
    5.5646    1.4972   -0.6722 C   0  0  0  0  0  0  0  0  0  0  0  0
    4.0509   -0.3090   -1.2567 C   0  0  0  0  0  0  0  0  0  0  0  0
    5.0402    0.6040   -1.6212 C   0  0  0  0  0  0  0  0  0  0  0  0
    5.6241    2.3675    1.5856 C   0  0  0  0  0  0  0  0  0  0  0  0
    6.5553    2.4312   -0.9822 C   0  0  0  0  0  0  0  0  0  0  0  0
    6.6052    3.2514    1.1625 C   0  0  0  0  0  0  0  0  0  0  0  0
   -4.0831    0.9061   -0.0342 C   0  0  0  0  0  0  0  0  0  0  0  0
   -5.4422    1.5026   -0.0879 C   0  0  0  0  0  0  0  0  0  0  0  0
   -5.6175    2.8718   -0.2543 C   0  0  0  0  0  0  0  0  0  0  0  0
   -6.5750    0.7130    0.0275 C   0  0  0  0  0  0  0  0  0  0  0  0
   -6.9022    3.4022   -0.2996 C   0  0  0  0  0  0  0  0  0  0  0  0
   -7.9696    2.5277   -0.1748 C   0  0  0  0  0  0  0  0  0  0  0  0
    1.2439   -3.0676    1.4409 H   0  0  0  0  0  0  0  0  0  0  0  0
    0.5929   -4.5320   -1.1752 H   0  0  0  0  0  0  0  0  0  0  0  0
    1.8820   -4.9175   -0.0448 H   0  0  0  0  0  0  0  0  0  0  0  0
   -0.6364   -2.5466   -1.8210 H   0  0  0  0  0  0  0  0  0  0  0  0
   -0.5537   -1.9874    2.4588 H   0  0  0  0  0  0  0  0  0  0  0  0
    2.2893   -1.2015    1.3865 H   0  0  0  0  0  0  0  0  0  0  0  0
   -2.8275   -1.4430   -1.9190 H   0  0  0  0  0  0  0  0  0  0  0  0
   -2.7501   -0.8817    2.3487 H   0  0  0  0  0  0  0  0  0  0  0  0
    3.7170    0.5138    2.0263 H   0  0  0  0  0  0  0  0  0  0  0  0
   -0.0309   -6.2608    0.2941 H   0  0  0  0  0  0  0  0  0  0  0  0
   -0.9988   -4.9741    0.5347 H   0  0  0  0  0  0  0  0  0  0  0  0
    3.7013   -0.9572   -2.0476 H   0  0  0  0  0  0  0  0  0  0  0  0
    5.3989    0.6156   -2.6480 H   0  0  0  0  0  0  0  0  0  0  0  0
    5.2887    2.3830    2.6181 H   0  0  0  0  0  0  0  0  0  0  0  0
    6.9658    2.5051   -1.9856 H   0  0  0  0  0  0  0  0  0  0  0  0
    7.0446    3.9626    1.8544 H   0  0  0  0  0  0  0  0  0  0  0  0
   -4.7663    3.5402   -0.3501 H   0  0  0  0  0  0  0  0  0  0  0  0
   -6.5290   -0.3630    0.1595 H   0  0  0  0  0  0  0  0  0  0  0  0
   -7.0629    4.4664   -0.4285 H   0  0  0  0  0  0  0  0  0  0  0  0
   -8.9915    2.8912   -0.2036 H   0  0  0  0  0  0  0  0  0  0  0  0
  1 11  2  0  0  0  0
  2 19  1  0  0  0  0
  2 26  1  0  0  0  0
  3 26  2  0  0  0  0
  4 11  1  0  0  0  0
  4 14  1  0  0  0  0
  4 37  1  0  0  0  0
  5 10  1  0  0  0  0
  5 41  1  0  0  0  0
  5 42  1  0  0  0  0
  6 24  2  0  0  0  0
  6 25  1  0  0  0  0
  7 29  1  0  0  0  0
  7 31  2  0  0  0  0
  8  9  1  0  0  0  0
  8 10  1  0  0  0  0
  8 11  1  0  0  0  0
  8 32  1  0  0  0  0
  9 12  2  0  0  0  0
  9 13  1  0  0  0  0
 10 33  1  0  0  0  0
 10 34  1  0  0  0  0
 12 16  1  0  0  0  0
 12 35  1  0  0  0  0
 13 17  2  0  0  0  0
 13 36  1  0  0  0  0
 14 18  2  0  0  0  0
 14 21  1  0  0  0  0
 15 18  1  0  0  0  0
 15 20  2  0  0  0  0
 15 23  1  0  0  0  0
 16 19  2  0  0  0  0
 16 38  1  0  0  0  0
 17 19  1  0  0  0  0
 17 39  1  0  0  0  0
 18 40  1  0  0  0  0
 20 22  1  0  0  0  0
 20 24  1  0  0  0  0
 21 22  2  0  0  0  0
 21 43  1  0  0  0  0
 22 44  1  0  0  0  0
 23 25  2  0  0  0  0
 23 45  1  0  0  0  0
 24 46  1  0  0  0  0
 25 47  1  0  0  0  0
 26 27  1  0  0  0  0
 27 28  1  0  0  0  0
 27 29  2  0  0  0  0
 28 30  2  0  0  0  0
 28 48  1  0  0  0  0
 29 49  1  0  0  0  0
 30 31  1  0  0  0  0
 30 50  1  0  0  0  0
 31 51  1  0  0  0  0
M  END
> <PUBCHEM_COMPOUND_CID>
127027885

> <PUBCHEM_CONFORMER_RMSD>
1

> <PUBCHEM_CONFORMER_DIVERSEORDER>
1
116
89
140
93
54
46
111
125
149
60
153
127
10
148
100
5
50
138
83
155
104
112
110
86
76
146
126
79
72
24
14
94
107
105
61
33
141
158
119
63
77
71
137
81
147
42
124
75
136
117
30
29
40
103
139
37
154
113
56
19
4
35
144
106
48
67
25
62
55
135
7
96
95
114
15
115
58
121
32
64
90
3
73
131
130
133
157
97
99
53
45
108
91
74
123
22
82
145
9
11
38
129
12
43
92
66
41
152
88
156
39
51
59
21
134
6
16
27
151
52
128
44
109
150
65
8
57
84
101
78
20
87
143
69
36
68
47
102
118
85
80
70
98
122
26
34
49
120
23
132
13
31
18
17
28
2
142

> <PUBCHEM_MMFF94_PARTIAL_CHARGES>
46
1 -0.57
10 0.27
11 0.57
12 -0.15
13 -0.15
14 0.12
16 -0.15
17 -0.15
18 -0.15
19 0.08
2 -0.23
21 -0.15
22 -0.15
23 -0.15
24 0.16
25 0.16
26 0.63
27 0.09
28 -0.15
29 0.16
3 -0.57
30 -0.15
31 0.16
35 0.15
36 0.15
37 0.37
38 0.15
39 0.15
4 -0.55
40 0.15
41 0.36
42 0.36
43 0.15
44 0.15
45 0.15
46 0.15
47 0.15
48 0.15
49 0.15
5 -0.99
50 0.15
51 0.15
6 -0.62
7 -0.62
8 0.2
9 -0.14

> <PUBCHEM_EFFECTIVE_ROTOR_COUNT>
8

> <PUBCHEM_PHARMACOPHORE_FEATURES>
11
1 1 acceptor
1 3 acceptor
1 4 donor
1 5 cation
1 5 donor
1 6 acceptor
1 7 acceptor
6 14 15 18 20 21 22 rings
6 6 15 20 23 24 25 rings
6 7 27 28 29 30 31 rings
6 9 12 13 16 17 19 rings

> <PUBCHEM_HEAVY_ATOM_COUNT>
31

> <PUBCHEM_ATOM_DEF_STEREO_COUNT>
0

> <PUBCHEM_ATOM_UDEF_STEREO_COUNT>
1

> <PUBCHEM_BOND_DEF_STEREO_COUNT>
0

> <PUBCHEM_BOND_UDEF_STEREO_COUNT>
0

> <PUBCHEM_ISOTOPIC_ATOM_COUNT>
0

> <PUBCHEM_COMPONENT_COUNT>
1

> <PUBCHEM_CACTVS_TAUTO_COUNT>
20

> <PUBCHEM_CONFORMER_ID>
07924AAD00000001

> <PUBCHEM_MMFF94_ENERGY>
101.8477

> <PUBCHEM_FEATURE_SELFOVERLAP>
55.85

> <PUBCHEM_SHAPE_FINGERPRINT>
105312 117 18267304412403252030
10533779 1 18338786892650441464
10673678 19 18341333293129172259
10675989 125 18268150851166364696
10842077 115 16882702351195566684
10864689 126 18341898498310150248
10981352 41 11314311663288766400
11135609 127 18266169544694080263
11135609 187 18411981343478342585
11421887 103 18338222877598378540
11761917 87 10663527267329092933
12107183 9 18262503854916907594
12895837 130 18341049739140176005
12988421 55 17677035936594906554
13383661 66 11675417619154742672
1361 87 12966550019894176069
13944108 23 18268430122941345000
14168556 18 18336551607976903011
14294032 229 18268997655756843851
14565420 104 18260265205359314787
14739800 52 18042963177922772051
14849402 71 18119246169166176618
14931854 50 17775571931156389128
15152005 290 18410292549262170828
15198563 99 17766836508768975479
15439362 3 18411702076399729718
15510800 12 10735865192890517341
15513586 35 16664595893464157396
15803439 3 16845293877674109446
15979999 66 17551803512470903070
15980000 95 17547012927803516870
16120349 189 18410013277461102390
16992787 43 18272095968503587945
16993089 31 13182442435903107405
19053607 189 18114758082617255708
19304671 126 17917720071639985236
19438510 23 18187363242098709794
20058555 10 18338234852514890485
20501277 180 18194679264714305917
20587220 17 18267859485402477709
20691028 202 18336828688511142284
21033648 29 18335144232391710102
21095086 4 7997703012482549984
21298829 104 18409729577691988605
21424621 283 18410009961477506215
21585481 104 16128112043838231953
23522609 53 17315359391928133260
23569914 152 17701280040256031982
270888 7 18410011056883888882
2748736 6 18409721872251439148
2838139 119 18340761546955842623
3246875 12 18408042927355659427
3418910 222 16895682559141067128
34797466 226 17987238829548096567
3504750 166 11169919390626069489
3627633 1 17618223248567416691
3862424 121 13398048986233831517
3918712 181 18341608226475611336
393628 194 18263361550188546125
3991529 202 18191280786299346120
4112364 45 18187072923863724346
44249763 50 17845079843839424288
508706 21 18054785358962394170
5109719 28 18410019823487439321
5219985 13 18410291423701430862
5265222 85 18267583692077071065
56633871 153 11241973702227886945
58260988 647 10231743514571458687
6176135 31 18187367653289482164
6327066 14 18411418444699784390
6695519 79 18193871239209456603
6697151 62 17178249922081847583
6712543 237 14996283617701535969
7288768 16 18113898290326033579
9849439 229 18409444795605894330
9980921 52 11676031262580714745

> <PUBCHEM_SHAPE_MULTIPOLES>
600.43
21.77
5.68
1.28
14.4
4.1
0.04
-35.41
-1.1
-1.22
0.55
-1.74
0.05
1.71

> <PUBCHEM_SHAPE_SELFOVERLAP>
1319.165

> <PUBCHEM_SHAPE_VOLUME>
318.3

> <PUBCHEM_COORDINATE_TYPE>
2
5
10

$$$$
70833218
  -OEChem-05102415033D

 40 42  0     1  0  0  0  0  0999 V2000
    0.7757    1.9379   -1.2256 O   0  0  0  0  0  0  0  0  0  0  0  0
    5.2845   -3.1860   -0.7247 O   0  0  0  0  0  0  0  0  0  0  0  0
   -0.1355    0.6884    0.5459 N   0  0  0  0  0  0  0  0  0  0  0  0
    4.1847    2.7706    1.2064 N   0  0  0  0  0  0  0  0  0  0  0  0
   -6.3255   -0.8483   -0.2319 N   0  0  0  0  0  0  0  0  0  0  0  0
    2.2037    1.3752    0.6426 C   0  0  1  0  0  0  0  0  0  0  0  0
    3.0301    0.1522    0.2765 C   0  0  0  0  0  0  0  0  0  0  0  0
    2.9594    2.7004    0.4143 C   0  0  0  0  0  0  0  0  0  0  0  0
    0.8807    1.3750   -0.1393 C   0  0  0  0  0  0  0  0  0  0  0  0
   -1.4575    0.4827    0.1493 C   0  0  0  0  0  0  0  0  0  0  0  0
    3.3312   -0.8030    1.2474 C   0  0  0  0  0  0  0  0  0  0  0  0
    3.4868   -0.0145   -1.0309 C   0  0  0  0  0  0  0  0  0  0  0  0
   -3.6632   -0.4434    0.5898 C   0  0  0  0  0  0  0  0  0  0  0  0
   -2.3302   -0.2272    0.9759 C   0  0  0  0  0  0  0  0  0  0  0  0
   -4.1107    0.0669   -0.6464 C   0  0  0  0  0  0  0  0  0  0  0  0
   -1.9034    0.9850   -1.0709 C   0  0  0  0  0  0  0  0  0  0  0  0
    4.0890   -1.9246    0.9111 C   0  0  0  0  0  0  0  0  0  0  0  0
    4.2447   -1.1361   -1.3673 C   0  0  0  0  0  0  0  0  0  0  0  0
   -3.2240    0.7800   -1.4701 C   0  0  0  0  0  0  0  0  0  0  0  0
    4.5458   -2.0911   -0.3962 C   0  0  0  0  0  0  0  0  0  0  0  0
   -4.5623   -1.1507    1.3961 C   0  0  0  0  0  0  0  0  0  0  0  0
   -5.4420   -0.1675   -0.9963 C   0  0  0  0  0  0  0  0  0  0  0  0
   -5.8620   -1.3218    0.9443 C   0  0  0  0  0  0  0  0  0  0  0  0
    1.9562    1.3309    1.7130 H   0  0  0  0  0  0  0  0  0  0  0  0
    3.2117    2.8427   -0.6429 H   0  0  0  0  0  0  0  0  0  0  0  0
    2.3117    3.5390    0.6962 H   0  0  0  0  0  0  0  0  0  0  0  0
    0.1123    0.2790    1.4440 H   0  0  0  0  0  0  0  0  0  0  0  0
    2.9819   -0.6872    2.2699 H   0  0  0  0  0  0  0  0  0  0  0  0
    3.2624    0.7162   -1.8029 H   0  0  0  0  0  0  0  0  0  0  0  0
   -1.9739   -0.6169    1.9283 H   0  0  0  0  0  0  0  0  0  0  0  0
   -1.2883    1.5409   -1.7642 H   0  0  0  0  0  0  0  0  0  0  0  0
    4.6462    3.6626    1.0325 H   0  0  0  0  0  0  0  0  0  0  0  0
    4.8382    2.0513    0.9001 H   0  0  0  0  0  0  0  0  0  0  0  0
    4.3201   -2.6654    1.6717 H   0  0  0  0  0  0  0  0  0  0  0  0
    4.5942   -1.2546   -2.3895 H   0  0  0  0  0  0  0  0  0  0  0  0
   -3.5569    1.1782   -2.4260 H   0  0  0  0  0  0  0  0  0  0  0  0
   -4.2630   -1.5617    2.3555 H   0  0  0  0  0  0  0  0  0  0  0  0
   -5.8508    0.1981   -1.9344 H   0  0  0  0  0  0  0  0  0  0  0  0
   -6.5881   -1.8645    1.5409 H   0  0  0  0  0  0  0  0  0  0  0  0
    5.5149   -3.1391   -1.6685 H   0  0  0  0  0  0  0  0  0  0  0  0
  1  9  2  0  0  0  0
  2 20  1  0  0  0  0
  2 40  1  0  0  0  0
  3  9  1  0  0  0  0
  3 10  1  0  0  0  0
  3 27  1  0  0  0  0
  4  8  1  0  0  0  0
  4 32  1  0  0  0  0
  4 33  1  0  0  0  0
  5 22  2  0  0  0  0
  5 23  1  0  0  0  0
  6  7  1  0  0  0  0
  6  8  1  0  0  0  0
  6  9  1  0  0  0  0
  6 24  1  0  0  0  0
  7 11  2  0  0  0  0
  7 12  1  0  0  0  0
  8 25  1  0  0  0  0
  8 26  1  0  0  0  0
 10 14  2  0  0  0  0
 10 16  1  0  0  0  0
 11 17  1  0  0  0  0
 11 28  1  0  0  0  0
 12 18  2  0  0  0  0
 12 29  1  0  0  0  0
 13 14  1  0  0  0  0
 13 15  2  0  0  0  0
 13 21  1  0  0  0  0
 14 30  1  0  0  0  0
 15 19  1  0  0  0  0
 15 22  1  0  0  0  0
 16 19  2  0  0  0  0
 16 31  1  0  0  0  0
 17 20  2  0  0  0  0
 17 34  1  0  0  0  0
 18 20  1  0  0  0  0
 18 35  1  0  0  0  0
 19 36  1  0  0  0  0
 21 23  2  0  0  0  0
 21 37  1  0  0  0  0
 22 38  1  0  0  0  0
 23 39  1  0  0  0  0
M  END
> <PUBCHEM_COMPOUND_CID>
70833218

> <PUBCHEM_CONFORMER_RMSD>
0.8

> <PUBCHEM_CONFORMER_DIVERSEORDER>
1
22
26
33
24
3
21
13
28
19
9
7
20
29
17
5
32
34
16
6
12
2
36
18
4
10
38
8
31
27
23
35
30
25
14
37
11
15

> <PUBCHEM_MMFF94_PARTIAL_CHARGES>
35
1 -0.57
10 0.12
11 -0.15
12 -0.15
14 -0.15
16 -0.15
17 -0.15
18 -0.15
19 -0.15
2 -0.53
20 0.08
21 -0.15
22 0.16
23 0.16
27 0.37
28 0.15
29 0.15
3 -0.55
30 0.15
31 0.15
32 0.36
33 0.36
34 0.15
35 0.15
36 0.15
37 0.15
38 0.15
39 0.15
4 -0.99
40 0.45
5 -0.62
6 0.2
7 -0.14
8 0.27
9 0.57

> <PUBCHEM_EFFECTIVE_ROTOR_COUNT>
5

> <PUBCHEM_PHARMACOPHORE_FEATURES>
9
1 1 acceptor
1 2 donor
1 3 donor
1 4 cation
1 4 donor
1 5 acceptor
6 10 13 14 15 16 19 rings
6 5 13 15 21 22 23 rings
6 7 11 12 17 18 20 rings

> <PUBCHEM_HEAVY_ATOM_COUNT>
23

> <PUBCHEM_ATOM_DEF_STEREO_COUNT>
0

> <PUBCHEM_ATOM_UDEF_STEREO_COUNT>
1

> <PUBCHEM_BOND_DEF_STEREO_COUNT>
0

> <PUBCHEM_BOND_UDEF_STEREO_COUNT>
0

> <PUBCHEM_ISOTOPIC_ATOM_COUNT>
0

> <PUBCHEM_COMPONENT_COUNT>
1

> <PUBCHEM_CACTVS_TAUTO_COUNT>
10

> <PUBCHEM_CONFORMER_ID>
0438D44200000001

> <PUBCHEM_MMFF94_ENERGY>
67.259

> <PUBCHEM_FEATURE_SELFOVERLAP>
45.698

> <PUBCHEM_SHAPE_FINGERPRINT>
10369192 42 17898850421031398052
10498660 4 11386665000310966414
10912923 1 17203611540496617281
11128504 68 14706928440948373343
11595378 159 16630536136955155401
12107183 9 17914067403839124377
12363563 72 18340772516592265342
12616971 3 17489301997443130829
12633257 1 15267049338029709650
13073987 5 18272375308538297193
13533116 47 18272370905811371937
13914758 101 17845934040627360577
13955234 65 18201433740214133832
14251732 14 15502671428972563035
14251740 57 18410013264354933722
14341114 328 14692275249511590702
14347424 109 18202569475495766649
14528608 73 13334740141418528023
14866123 147 17905044751165509737
14910302 57 17821440270812037087
15142526 21 16911419774068871312
15183329 4 17240763943762207935
15664445 248 16588312743118058940
17349148 13 17846505837464254031
17844677 252 18412827980184502905
17870717 6 17530967973746245815
1813 80 17988934314752972564
193927 3 18340771450981569898
20369508 70 18409444774426164738
20645477 70 18411133649755675376
20693207 138 18040711450569688036
21033650 10 16371286602210007084
21065201 7 17603575318796835189
21279426 13 18187353304320203765
21344244 78 17489297586390691632
21682296 61 18340491075933718791
22061861 79 18407757045531493415
2215653 11 18186514406859792999
22182313 1 18041543819590151077
22224240 67 18197770219216025392
2303208 19 18041003968666907211
23559900 14 17821450179058774989
239999 70 18114740533903064688
270888 7 8501785079066823478
3004659 81 17167859730134574626
312423 11 18343029873550962520
3298306 158 18113890521199855923
3421961 26 18413388731219851896
345986 75 17703510995701911720
3472631 163 11458724810431037642
34797466 226 17313673749484785821
46194498 28 17531252802475139604
465052 167 18343025479941629286
5104073 3 18412824668669883217
5309563 4 18126286342160933342
543368 44 12757160090868583607
59682541 35 18341037559747223938
6823239 73 18040431105406798744
7970288 3 18270402664134704590
8863177 126 18335425707068052179
960060 61 17675930888949042710
9709674 26 17750235970880065035

> <PUBCHEM_SHAPE_MULTIPOLES>
446.65
14.55
2.58
1.42
10.69
0.12
0.1
-8.63
0.33
-5.02
-0.22
0.01
-0.03
2.17

> <PUBCHEM_SHAPE_SELFOVERLAP>
973.87

> <PUBCHEM_SHAPE_VOLUME>
241

> <PUBCHEM_COORDINATE_TYPE>
2
5
10

$$$$
127031818
  -OEChem-05102415033D

 39 41  0     1  0  0  0  0  0999 V2000
    4.7228   -1.7979   -2.2341 F   0  0  0  0  0  0  0  0  0  0  0  0
    0.9053    1.7000   -1.2980 O   0  0  0  0  0  0  0  0  0  0  0  0
   -0.1038    0.6708    0.5600 N   0  0  0  0  0  0  0  0  0  0  0  0
    4.2728    2.6553    1.1467 N   0  0  0  0  0  0  0  0  0  0  0  0
   -6.3236   -0.7171   -0.2589 N   0  0  0  0  0  0  0  0  0  0  0  0
    2.2565    1.2807    0.6626 C   0  0  1  0  0  0  0  0  0  0  0  0
    3.0453   -0.0018    0.4488 C   0  0  0  0  0  0  0  0  0  0  0  0
    3.0688    2.5480    0.3264 C   0  0  0  0  0  0  0  0  0  0  0  0
    0.9573    1.2476   -0.1577 C   0  0  0  0  0  0  0  0  0  0  0  0
   -1.4208    0.4727    0.1436 C   0  0  0  0  0  0  0  0  0  0  0  0
    3.5326   -0.3177   -0.8195 C   0  0  0  0  0  0  0  0  0  0  0  0
    3.2811   -0.8627    1.5208 C   0  0  0  0  0  0  0  0  0  0  0  0
   -3.6722   -0.3249    0.6036 C   0  0  0  0  0  0  0  0  0  0  0  0
   -2.3435   -0.1178    1.0089 C   0  0  0  0  0  0  0  0  0  0  0  0
   -4.0641    0.0721   -0.6916 C   0  0  0  0  0  0  0  0  0  0  0  0
   -1.8120    0.8635   -1.1349 C   0  0  0  0  0  0  0  0  0  0  0  0
   -3.1274    0.6655   -1.5539 C   0  0  0  0  0  0  0  0  0  0  0  0
    4.2557   -1.4942   -1.0159 C   0  0  0  0  0  0  0  0  0  0  0  0
    4.0040   -2.0393    1.3245 C   0  0  0  0  0  0  0  0  0  0  0  0
    4.4915   -2.3551    0.0563 C   0  0  0  0  0  0  0  0  0  0  0  0
   -4.6206   -0.9140    1.4477 C   0  0  0  0  0  0  0  0  0  0  0  0
   -5.3930   -0.1495   -1.0590 C   0  0  0  0  0  0  0  0  0  0  0  0
   -5.9125   -1.0842    0.9736 C   0  0  0  0  0  0  0  0  0  0  0  0
    1.9768    1.3547    1.7235 H   0  0  0  0  0  0  0  0  0  0  0  0
    3.3566    2.5726   -0.7311 H   0  0  0  0  0  0  0  0  0  0  0  0
    2.4461    3.4335    0.5010 H   0  0  0  0  0  0  0  0  0  0  0  0
    0.1023    0.3467    1.5024 H   0  0  0  0  0  0  0  0  0  0  0  0
    3.3592    0.3373   -1.6685 H   0  0  0  0  0  0  0  0  0  0  0  0
    2.9074   -0.6305    2.5144 H   0  0  0  0  0  0  0  0  0  0  0  0
   -2.0299   -0.4207    2.0068 H   0  0  0  0  0  0  0  0  0  0  0  0
   -1.1563    1.3236   -1.8604 H   0  0  0  0  0  0  0  0  0  0  0  0
    4.7731    3.5080    0.8986 H   0  0  0  0  0  0  0  0  0  0  0  0
    4.9066    1.8858    0.9359 H   0  0  0  0  0  0  0  0  0  0  0  0
   -3.4174    0.9757   -2.5553 H   0  0  0  0  0  0  0  0  0  0  0  0
    4.1874   -2.7098    2.1590 H   0  0  0  0  0  0  0  0  0  0  0  0
    5.0543   -3.2711   -0.0969 H   0  0  0  0  0  0  0  0  0  0  0  0
   -4.3649   -1.2352    2.4529 H   0  0  0  0  0  0  0  0  0  0  0  0
   -5.7603    0.1327   -2.0420 H   0  0  0  0  0  0  0  0  0  0  0  0
   -6.6757   -1.5371    1.5981 H   0  0  0  0  0  0  0  0  0  0  0  0
  1 18  1  0  0  0  0
  2  9  2  0  0  0  0
  3  9  1  0  0  0  0
  3 10  1  0  0  0  0
  3 27  1  0  0  0  0
  4  8  1  0  0  0  0
  4 32  1  0  0  0  0
  4 33  1  0  0  0  0
  5 22  2  0  0  0  0
  5 23  1  0  0  0  0
  6  7  1  0  0  0  0
  6  8  1  0  0  0  0
  6  9  1  0  0  0  0
  6 24  1  0  0  0  0
  7 11  2  0  0  0  0
  7 12  1  0  0  0  0
  8 25  1  0  0  0  0
  8 26  1  0  0  0  0
 10 14  2  0  0  0  0
 10 16  1  0  0  0  0
 11 18  1  0  0  0  0
 11 28  1  0  0  0  0
 12 19  2  0  0  0  0
 12 29  1  0  0  0  0
 13 14  1  0  0  0  0
 13 15  2  0  0  0  0
 13 21  1  0  0  0  0
 14 30  1  0  0  0  0
 15 17  1  0  0  0  0
 15 22  1  0  0  0  0
 16 17  2  0  0  0  0
 16 31  1  0  0  0  0
 17 34  1  0  0  0  0
 18 20  2  0  0  0  0
 19 20  1  0  0  0  0
 19 35  1  0  0  0  0
 20 36  1  0  0  0  0
 21 23  2  0  0  0  0
 21 37  1  0  0  0  0
 22 38  1  0  0  0  0
 23 39  1  0  0  0  0
M  END
> <PUBCHEM_COMPOUND_CID>
127031818

> <PUBCHEM_CONFORMER_RMSD>
0.8

> <PUBCHEM_CONFORMER_DIVERSEORDER>
1
46
90
22
26
82
61
16
6
77
91
95
57
40
59
44
84
72
65
79
41
83
48
52
4
71
88
55
60
58
13
63
21
32
18
38
86
28
66
27
94
68
50
30
14
7
54
42
17
47
85
12
74
45
11
62
24
3
78
31
81
89
8
15
49
64
69
51
53
76
92
19
35
87
9
80
93
75
23
37
10
5
29
73
56
2
33
43
67
70
39
36
34
20
25

> <PUBCHEM_MMFF94_PARTIAL_CHARGES>
34
1 -0.19
10 0.12
11 -0.15
12 -0.15
14 -0.15
16 -0.15
17 -0.15
18 0.19
19 -0.15
2 -0.57
20 -0.15
21 -0.15
22 0.16
23 0.16
27 0.37
28 0.15
29 0.15
3 -0.55
30 0.15
31 0.15
32 0.36
33 0.36
34 0.15
35 0.15
36 0.15
37 0.15
38 0.15
39 0.15
4 -0.99
5 -0.62
6 0.2
7 -0.14
8 0.27
9 0.57

> <PUBCHEM_EFFECTIVE_ROTOR_COUNT>
5

> <PUBCHEM_PHARMACOPHORE_FEATURES>
8
1 2 acceptor
1 3 donor
1 4 cation
1 4 donor
1 5 acceptor
6 10 13 14 15 16 17 rings
6 5 13 15 21 22 23 rings
6 7 11 12 18 19 20 rings

> <PUBCHEM_HEAVY_ATOM_COUNT>
23

> <PUBCHEM_ATOM_DEF_STEREO_COUNT>
0

> <PUBCHEM_ATOM_UDEF_STEREO_COUNT>
1

> <PUBCHEM_BOND_DEF_STEREO_COUNT>
0

> <PUBCHEM_BOND_UDEF_STEREO_COUNT>
0

> <PUBCHEM_ISOTOPIC_ATOM_COUNT>
0

> <PUBCHEM_COMPONENT_COUNT>
1

> <PUBCHEM_CACTVS_TAUTO_COUNT>
34

> <PUBCHEM_CONFORMER_ID>
07925A0A00000001

> <PUBCHEM_MMFF94_ENERGY>
65.2593

> <PUBCHEM_FEATURE_SELFOVERLAP>
40.623

> <PUBCHEM_SHAPE_FINGERPRINT>
10369192 42 17898005991811534564
10498660 4 12107801695767575286
10912923 1 17274823605808361249
10928967 22 18260547796932875651
11059845 2 15479326404502129650
11595378 159 16774087266954928577
12236239 1 16988566852717569897
12616971 3 17704348875402590437
12633257 1 17918269857154374950
12670546 177 16008752385472489663
13073987 5 18341897420193777065
13533116 47 18202565107302672433
13914758 101 17917427576599774785
13955234 65 18271801380548266520
14211702 104 18266461104397193175
14251758 9 17916870102128366633
14251764 30 18057617468935252598
14341114 176 14548736171379993222
14341114 328 15123492719098798330
14366163 111 13912327871438686782
14528608 73 13334740132812795131
14910302 57 17458334239409190191
15142526 21 16839641447426079928
15183329 4 17749105548615298031
15664445 248 16371016251525381324
15788980 27 17988923362570458769
17349148 13 17989211447343634431
17844677 252 18410291398227058569
1813 80 18130511825654671532
18222031 100 18272932683217739126
193927 3 18341898450341992010
20369508 70 18335696127220371082
20645477 70 18412259549688872232
20693207 138 18040148504884840693
21033650 10 15792288164247993708
21065201 7 17385712578747559821
21279426 13 18041829637575305029
21344244 78 17560792226180230952
22061861 79 18334853922783186159
2215653 11 18040710364644549583
22182313 1 17968360321355661997
22224240 67 18195235840618995464
2303208 19 18040158435650972179
23081809 10 17275106159143577665
23559900 14 17458348563061643661
239999 70 18334294305745492032
312423 11 18271254853969718008
3298306 158 17968366854444388355
3421961 26 18409162204174907880
345986 75 17917144988171403010
34797466 226 17458633362538278869
3680242 22 14045749213939800227
44317340 157 8286203868483605613
465052 167 18412547595812987470
5104073 3 18410289186261041889
5281201 14 18259702302465865277
543368 44 13190351188138356167
6823239 73 17894910745776187832
7970288 3 18198626540752159278
8863177 126 18261961837737320211
960060 61 17385729075558616766
9709674 26 17604150449403693281
9841814 1 18412538787446499480

> <PUBCHEM_SHAPE_MULTIPOLES>
445.24
14.34
2.28
1.6
11.79
0.41
0.4
-6.89
0.54
-4.08
-0.38
-0.75
-0.27
2.02

> <PUBCHEM_SHAPE_SELFOVERLAP>
971.3

> <PUBCHEM_SHAPE_VOLUME>
241.5

> <PUBCHEM_COORDINATE_TYPE>
2
5
10

$$$$
59563759
  -OEChem-05102415033D

 42 44  0     1  0  0  0  0  0999 V2000
    0.7668    1.9384   -1.2333 O   0  0  0  0  0  0  0  0  0  0  0  0
   -0.1419    0.6944    0.5432 N   0  0  0  0  0  0  0  0  0  0  0  0
    4.1720    2.7919    1.1968 N   0  0  0  0  0  0  0  0  0  0  0  0
   -6.3272   -0.8632   -0.2308 N   0  0  0  0  0  0  0  0  0  0  0  0
    2.1952    1.3883    0.6382 C   0  0  1  0  0  0  0  0  0  0  0  0
    3.0253    0.1660    0.2781 C   0  0  0  0  0  0  0  0  0  0  0  0
    2.9473    2.7145    0.4043 C   0  0  0  0  0  0  0  0  0  0  0  0
    0.8727    1.3809   -0.1444 C   0  0  0  0  0  0  0  0  0  0  0  0
    3.3280   -0.7833    1.2543 C   0  0  0  0  0  0  0  0  0  0  0  0
    3.4865   -0.0043   -1.0273 C   0  0  0  0  0  0  0  0  0  0  0  0
   -1.4632    0.4831    0.1470 C   0  0  0  0  0  0  0  0  0  0  0  0
    4.5529   -2.0734   -0.3806 C   0  0  0  0  0  0  0  0  0  0  0  0
    4.0919   -1.9030    0.9250 C   0  0  0  0  0  0  0  0  0  0  0  0
    4.2504   -1.1240   -1.3565 C   0  0  0  0  0  0  0  0  0  0  0  0
   -3.6664   -0.4470    0.5905 C   0  0  0  0  0  0  0  0  0  0  0  0
   -2.3343   -0.2253    0.9764 C   0  0  0  0  0  0  0  0  0  0  0  0
   -4.1147    0.0563   -0.6483 C   0  0  0  0  0  0  0  0  0  0  0  0
   -1.9098    0.9788   -1.0757 C   0  0  0  0  0  0  0  0  0  0  0  0
   -3.2296    0.7682   -1.4747 C   0  0  0  0  0  0  0  0  0  0  0  0
    5.3701   -3.2706   -0.7320 C   0  0  0  0  0  0  0  0  0  0  0  0
   -4.5640   -1.1532    1.3996 C   0  0  0  0  0  0  0  0  0  0  0  0
   -5.4451   -0.1835   -0.9978 C   0  0  0  0  0  0  0  0  0  0  0  0
   -5.8629   -1.3301    0.9479 C   0  0  0  0  0  0  0  0  0  0  0  0
    1.9472    1.3483    1.7087 H   0  0  0  0  0  0  0  0  0  0  0  0
    3.1998    2.8527   -0.6535 H   0  0  0  0  0  0  0  0  0  0  0  0
    2.2971    3.5526    0.6819 H   0  0  0  0  0  0  0  0  0  0  0  0
    2.9756   -0.6644    2.2753 H   0  0  0  0  0  0  0  0  0  0  0  0
    3.2610    0.7220   -1.8030 H   0  0  0  0  0  0  0  0  0  0  0  0
    0.1065    0.2899    1.4434 H   0  0  0  0  0  0  0  0  0  0  0  0
    4.3197   -2.6366    1.6938 H   0  0  0  0  0  0  0  0  0  0  0  0
    4.6023   -1.2465   -2.3774 H   0  0  0  0  0  0  0  0  0  0  0  0
   -1.9774   -0.6096    1.9307 H   0  0  0  0  0  0  0  0  0  0  0  0
   -1.2959    1.5332   -1.7712 H   0  0  0  0  0  0  0  0  0  0  0  0
    4.6310    3.6844    1.0189 H   0  0  0  0  0  0  0  0  0  0  0  0
    4.8277    2.0731    0.8943 H   0  0  0  0  0  0  0  0  0  0  0  0
   -3.5632    1.1611   -2.4326 H   0  0  0  0  0  0  0  0  0  0  0  0
    5.9655   -3.6073    0.1235 H   0  0  0  0  0  0  0  0  0  0  0  0
    6.0724   -3.0460   -1.5420 H   0  0  0  0  0  0  0  0  0  0  0  0
    4.7182   -4.0901   -1.0502 H   0  0  0  0  0  0  0  0  0  0  0  0
   -4.2640   -1.5588    2.3610 H   0  0  0  0  0  0  0  0  0  0  0  0
   -5.8544    0.1766   -1.9378 H   0  0  0  0  0  0  0  0  0  0  0  0
   -6.5878   -1.8720    1.5466 H   0  0  0  0  0  0  0  0  0  0  0  0
  1  8  2  0  0  0  0
  2  8  1  0  0  0  0
  2 11  1  0  0  0  0
  2 29  1  0  0  0  0
  3  7  1  0  0  0  0
  3 34  1  0  0  0  0
  3 35  1  0  0  0  0
  4 22  2  0  0  0  0
  4 23  1  0  0  0  0
  5  6  1  0  0  0  0
  5  7  1  0  0  0  0
  5  8  1  0  0  0  0
  5 24  1  0  0  0  0
  6  9  2  0  0  0  0
  6 10  1  0  0  0  0
  7 25  1  0  0  0  0
  7 26  1  0  0  0  0
  9 13  1  0  0  0  0
  9 27  1  0  0  0  0
 10 14  2  0  0  0  0
 10 28  1  0  0  0  0
 11 16  2  0  0  0  0
 11 18  1  0  0  0  0
 12 13  2  0  0  0  0
 12 14  1  0  0  0  0
 12 20  1  0  0  0  0
 13 30  1  0  0  0  0
 14 31  1  0  0  0  0
 15 16  1  0  0  0  0
 15 17  2  0  0  0  0
 15 21  1  0  0  0  0
 16 32  1  0  0  0  0
 17 19  1  0  0  0  0
 17 22  1  0  0  0  0
 18 19  2  0  0  0  0
 18 33  1  0  0  0  0
 19 36  1  0  0  0  0
 20 37  1  0  0  0  0
 20 38  1  0  0  0  0
 20 39  1  0  0  0  0
 21 23  2  0  0  0  0
 21 40  1  0  0  0  0
 22 41  1  0  0  0  0
 23 42  1  0  0  0  0
M  END
> <PUBCHEM_COMPOUND_CID>
59563759

> <PUBCHEM_CONFORMER_RMSD>
0.8

> <PUBCHEM_CONFORMER_DIVERSEORDER>
1
22
33
9
25
23
10
21
30
17
20
34
3
5
18
16
6
8
13
11
26
2
7
27
4
19
29
31
32
24
28
14
12
15

> <PUBCHEM_MMFF94_PARTIAL_CHARGES>
34
1 -0.57
10 -0.15
11 0.12
12 -0.14
13 -0.15
14 -0.15
16 -0.15
18 -0.15
19 -0.15
2 -0.55
20 0.14
21 -0.15
22 0.16
23 0.16
27 0.15
28 0.15
29 0.37
3 -0.99
30 0.15
31 0.15
32 0.15
33 0.15
34 0.36
35 0.36
36 0.15
4 -0.62
40 0.15
41 0.15
42 0.15
5 0.2
6 -0.14
7 0.27
8 0.57
9 -0.15

> <PUBCHEM_EFFECTIVE_ROTOR_COUNT>
5

> <PUBCHEM_PHARMACOPHORE_FEATURES>
8
1 1 acceptor
1 2 donor
1 3 cation
1 3 donor
1 4 acceptor
6 11 15 16 17 18 19 rings
6 4 15 17 21 22 23 rings
6 6 9 10 12 13 14 rings

> <PUBCHEM_HEAVY_ATOM_COUNT>
23

> <PUBCHEM_ATOM_DEF_STEREO_COUNT>
0

> <PUBCHEM_ATOM_UDEF_STEREO_COUNT>
1

> <PUBCHEM_BOND_DEF_STEREO_COUNT>
0

> <PUBCHEM_BOND_UDEF_STEREO_COUNT>
0

> <PUBCHEM_ISOTOPIC_ATOM_COUNT>
0

> <PUBCHEM_COMPONENT_COUNT>
1

> <PUBCHEM_CACTVS_TAUTO_COUNT>
5

> <PUBCHEM_CONFORMER_ID>
038CDEEF00000001

> <PUBCHEM_MMFF94_ENERGY>
67.7776

> <PUBCHEM_FEATURE_SELFOVERLAP>
40.623

> <PUBCHEM_SHAPE_FINGERPRINT>
10369192 42 17899130796491212652
10498660 4 11314325931317446318
10912923 1 17203330065519893657
10928967 22 18259985955065173083
11128504 68 14706928440932562071
11595378 159 16630536136955155401
12107183 9 17914067403823293617
12363563 72 18268996397546898302
12616971 3 17489864943069962357
12633257 1 15338824353337092322
13073987 5 18272375304232786889
13533116 47 18272370905800822425
13782708 43 18408603691302991831
13914758 101 17845934040622072825
13955234 65 18201433740224683328
14123256 34 18341621352364834958
14251740 57 18410013260081058930
14251764 30 18268717121435908926
14341114 328 14764332843602285658
14347424 109 18202569475485217137
14528608 73 13334740141407984999
14866123 147 17905327325632736161
14910302 57 17821721745783472999
15142526 21 16911419774068877800
15183329 4 17312821533510449847
15188451 53 16702007657093976183
15664445 248 16588312738854707668
17349148 13 17846223262965372591
17844677 252 18413108355639023297
17870717 6 17530967973730428055
1813 80 17988652835502374140
193927 3 18340208501038711114
20369508 70 18409444778726406794
20645477 70 18411132550249322352
20693207 138 18040711450590787044
21033650 10 16371286602210013580
21279426 13 18187353304309647765
21344244 78 17561356279956065096
21682296 61 18340209600962276375
22061861 79 18407757045520950399
2215653 11 18186514406859799487
22224240 67 18125712625183372208
2303208 19 18041003968656344683
23559900 14 17821731649735224109
239999 70 18114459058931635272
270888 7 8501785079072085246
3004659 81 17240762848624844194
312423 11 18343029873556237272
3298306 158 18114171996171291795
3421961 26 18413388731235663168
345986 75 17703793574522192672
3472631 163 11458724810457417906
34797466 226 17313392274492237925
46194498 28 17749394797214030108
465052 167 18343025475673042254
5104073 3 18413388718140200569
5309563 4 18126286346466424158
543368 44 12540705829488416055
59682541 35 18341319030434287498
6823239 73 18040149630424806816
7970288 3 18270402664139972854
8863177 126 18335707177723428259
960060 61 17675930888954317462

> <PUBCHEM_SHAPE_MULTIPOLES>
452.52
14.79
2.71
1.42
10.69
0.19
0.09
-9.77
0.38
-5.42
-0.21
0.13
-0.04
2.14

> <PUBCHEM_SHAPE_SELFOVERLAP>
982.39

> <PUBCHEM_SHAPE_VOLUME>
246.1

> <PUBCHEM_COORDINATE_TYPE>
2
5
10

$$$$
127028820
  -OEChem-05102415033D

 43 45  0     1  0  0  0  0  0999 V2000
    0.7410    1.1263   -1.8202 O   0  0  0  0  0  0  0  0  0  0  0  0
    3.7376   -3.1498   -1.6765 O   0  0  0  0  0  0  0  0  0  0  0  0
   -0.3122    0.9848    0.2774 N   0  0  0  0  0  0  0  0  0  0  0  0
    3.9752    3.2185    0.0216 N   0  0  0  0  0  0  0  0  0  0  0  0
   -6.4489   -0.9010    0.0167 N   0  0  0  0  0  0  0  0  0  0  0  0
    2.0224    1.6825    0.1532 C   0  0  1  0  0  0  0  0  0  0  0  0
    2.8574    0.4754    0.5513 C   0  0  0  0  0  0  0  0  0  0  0  0
    2.8097    2.7039   -0.6930 C   0  0  0  0  0  0  0  0  0  0  0  0
    0.7597    1.2301   -0.5968 C   0  0  0  0  0  0  0  0  0  0  0  0
    3.4068   -0.3479   -0.4315 C   0  0  0  0  0  0  0  0  0  0  0  0
    3.0745    0.1920    1.8999 C   0  0  0  0  0  0  0  0  0  0  0  0
    4.1730   -1.4548   -0.0660 C   0  0  0  0  0  0  0  0  0  0  0  0
   -1.6046    0.5632   -0.0378 C   0  0  0  0  0  0  0  0  0  0  0  0
    3.8411   -0.9146    2.2654 C   0  0  0  0  0  0  0  0  0  0  0  0
    4.3901   -1.7382    1.2824 C   0  0  0  0  0  0  0  0  0  0  0  0
   -3.8480   -0.0477    0.6762 C   0  0  0  0  0  0  0  0  0  0  0  0
   -2.5439    0.3775    0.9779 C   0  0  0  0  0  0  0  0  0  0  0  0
   -4.1982   -0.2852   -0.6691 C   0  0  0  0  0  0  0  0  0  0  0  0
   -1.9544    0.3276   -1.3653 C   0  0  0  0  0  0  0  0  0  0  0  0
    4.7603   -2.3351   -1.1168 C   0  0  0  0  0  0  0  0  0  0  0  0
   -3.2450   -0.0947   -1.6832 C   0  0  0  0  0  0  0  0  0  0  0  0
   -4.8123   -0.2427    1.6718 C   0  0  0  0  0  0  0  0  0  0  0  0
   -5.5036   -0.7065   -0.9304 C   0  0  0  0  0  0  0  0  0  0  0  0
   -6.0779   -0.6638    1.2929 C   0  0  0  0  0  0  0  0  0  0  0  0
    1.6974    2.2072    1.0632 H   0  0  0  0  0  0  0  0  0  0  0  0
    3.1398    2.2695   -1.6438 H   0  0  0  0  0  0  0  0  0  0  0  0
    2.1541    3.5457   -0.9456 H   0  0  0  0  0  0  0  0  0  0  0  0
    3.2419   -0.1368   -1.4850 H   0  0  0  0  0  0  0  0  0  0  0  0
    2.6528    0.8237    2.6769 H   0  0  0  0  0  0  0  0  0  0  0  0
   -0.1354    1.1225    1.2701 H   0  0  0  0  0  0  0  0  0  0  0  0
    4.0098   -1.1354    3.3153 H   0  0  0  0  0  0  0  0  0  0  0  0
    4.9836   -2.5978    1.5820 H   0  0  0  0  0  0  0  0  0  0  0  0
   -2.2626    0.5638    2.0133 H   0  0  0  0  0  0  0  0  0  0  0  0
    4.4594    3.8940   -0.5685 H   0  0  0  0  0  0  0  0  0  0  0  0
    4.6399    2.4649    0.1904 H   0  0  0  0  0  0  0  0  0  0  0  0
   -1.2835    0.4467   -2.2043 H   0  0  0  0  0  0  0  0  0  0  0  0
    5.5398   -2.9867   -0.7073 H   0  0  0  0  0  0  0  0  0  0  0  0
    5.2126   -1.7331   -1.9127 H   0  0  0  0  0  0  0  0  0  0  0  0
   -3.5027   -0.2749   -2.7245 H   0  0  0  0  0  0  0  0  0  0  0  0
   -4.5885   -0.0723    2.7205 H   0  0  0  0  0  0  0  0  0  0  0  0
   -5.8385   -0.9070   -1.9445 H   0  0  0  0  0  0  0  0  0  0  0  0
   -6.8522   -0.8263    2.0357 H   0  0  0  0  0  0  0  0  0  0  0  0
    4.1544   -3.6996   -2.3618 H   0  0  0  0  0  0  0  0  0  0  0  0
  1  9  2  0  0  0  0
  2 20  1  0  0  0  0
  2 43  1  0  0  0  0
  3  9  1  0  0  0  0
  3 13  1  0  0  0  0
  3 30  1  0  0  0  0
  4  8  1  0  0  0  0
  4 34  1  0  0  0  0
  4 35  1  0  0  0  0
  5 23  2  0  0  0  0
  5 24  1  0  0  0  0
  6  7  1  0  0  0  0
  6  8  1  0  0  0  0
  6  9  1  0  0  0  0
  6 25  1  0  0  0  0
  7 10  1  0  0  0  0
  7 11  2  0  0  0  0
  8 26  1  0  0  0  0
  8 27  1  0  0  0  0
 10 12  2  0  0  0  0
 10 28  1  0  0  0  0
 11 14  1  0  0  0  0
 11 29  1  0  0  0  0
 12 15  1  0  0  0  0
 12 20  1  0  0  0  0
 13 17  2  0  0  0  0
 13 19  1  0  0  0  0
 14 15  2  0  0  0  0
 14 31  1  0  0  0  0
 15 32  1  0  0  0  0
 16 17  1  0  0  0  0
 16 18  2  0  0  0  0
 16 22  1  0  0  0  0
 17 33  1  0  0  0  0
 18 21  1  0  0  0  0
 18 23  1  0  0  0  0
 19 21  2  0  0  0  0
 19 36  1  0  0  0  0
 20 37  1  0  0  0  0
 20 38  1  0  0  0  0
 21 39  1  0  0  0  0
 22 24  2  0  0  0  0
 22 40  1  0  0  0  0
 23 41  1  0  0  0  0
 24 42  1  0  0  0  0
M  END
> <PUBCHEM_COMPOUND_CID>
127028820

> <PUBCHEM_CONFORMER_RMSD>
0.8

> <PUBCHEM_CONFORMER_DIVERSEORDER>
1
175
6
135
75
53
67
52
100
65
170
142
134
139
19
70
29
166
165
5
161
58
112
120
43
129
34
56
149
78
47
69
90
93
96
91
160
7
121
54
116
59
37
176
151
150
148
157
133
168
51
46
40
73
10
23
131
146
180
99
123
177
125
25
41
106
63
154
144
3
111
162
128
115
45
132
94
71
60
62
82
143
80
81
92
89
17
163
152
48
122
76
102
172
108
158
64
124
95
36
130
4
141
72
147
107
174
74
171
26
156
42
101
127
179
38
57
155
169
16
50
138
97
113
85
119
14
79
21
87
173
28
8
9
178
31
35
22
12
86
145
164
83
117
153
20
109
84
159
105
77
18
140
104
33
49
136
61
88
167
68
126
114
137
103
55
110
66
24
98
118
2
11
44
15
39
30
13
27
32

> <PUBCHEM_MMFF94_PARTIAL_CHARGES>
36
1 -0.57
10 -0.15
11 -0.15
12 -0.14
13 0.12
14 -0.15
15 -0.15
17 -0.15
19 -0.15
2 -0.68
20 0.42
21 -0.15
22 -0.15
23 0.16
24 0.16
28 0.15
29 0.15
3 -0.55
30 0.37
31 0.15
32 0.15
33 0.15
34 0.36
35 0.36
36 0.15
39 0.15
4 -0.99
40 0.15
41 0.15
42 0.15
43 0.4
5 -0.62
6 0.2
7 -0.14
8 0.27
9 0.57

> <PUBCHEM_EFFECTIVE_ROTOR_COUNT>
6

> <PUBCHEM_PHARMACOPHORE_FEATURES>
10
1 1 acceptor
1 2 acceptor
1 2 donor
1 3 donor
1 4 cation
1 4 donor
1 5 acceptor
6 13 16 17 18 19 21 rings
6 5 16 18 22 23 24 rings
6 7 10 11 12 14 15 rings

> <PUBCHEM_HEAVY_ATOM_COUNT>
24

> <PUBCHEM_ATOM_DEF_STEREO_COUNT>
0

> <PUBCHEM_ATOM_UDEF_STEREO_COUNT>
1

> <PUBCHEM_BOND_DEF_STEREO_COUNT>
0

> <PUBCHEM_BOND_UDEF_STEREO_COUNT>
0

> <PUBCHEM_ISOTOPIC_ATOM_COUNT>
0

> <PUBCHEM_COMPONENT_COUNT>
1

> <PUBCHEM_CACTVS_TAUTO_COUNT>
34

> <PUBCHEM_CONFORMER_ID>
07924E5400000001

> <PUBCHEM_MMFF94_ENERGY>
69.0674

> <PUBCHEM_FEATURE_SELFOVERLAP>
50.774

> <PUBCHEM_SHAPE_FINGERPRINT>
10319926 262 15626232294643268551
10369192 42 17170681253276643564
10498660 4 8141792911289053286
10928967 22 17676487228953493131
11059845 2 16554552006437118130
11595378 159 17704079494901331025
11954058 11 18273220763943893606
12107183 9 17913507743878163345
12422481 6 18059583421569001941
12596602 18 16559024995833127931
12778500 126 16701744843318026811
12892183 10 17131259161357028418
13533116 47 18342177803953031353
13617811 41 15213298656024005535
13782708 43 17894631492036307451
13914758 101 18343014455767940837
13955234 65 18340767147910000072
14211702 104 18117282660985697819
14251740 57 18410296942697398403
14251758 9 18270117903718372181
14251764 30 18266183829502618910
14341114 176 16558747889038240466
14366163 111 11891334235710248894
14528608 73 11458426834321454667
14910302 57 16298655149301957667
15142526 21 17339267244759301248
15183329 4 17458338599222761565
15484559 13 12265205877761657505
17349148 13 18413674621375359579
17844677 252 18114177532378562477
1813 80 18338237059853131132
18222031 100 18409445856383526146
193927 3 18334859381116757689
20369508 70 17967242096987673208
20645477 70 18333447664243009044
20693207 138 17385439925380266245
20775530 9 17698725809867414190
21033650 10 14201945758229401580
21344244 78 18131342021015852400
21792934 111 16271380613088656131
22061861 79 17967809466599539799
2215653 11 17240473720264169219
2303208 19 17385446544642086697
23081809 10 17989210378424291921
239999 70 18040998483772201672
312423 11 18335991899605841185
3472631 163 11314323753489569370
34797466 226 16950572137750979773
3680242 22 16056886827410305267
3737641 26 17700138695241454974
3886686 26 16481091401334673695
44317340 157 10159703512545735229
46194498 28 18040438810836610532
465052 167 18260547814107041050
5104073 3 18186794773561485265
57359948 33 15864055585868412175
6823239 73 17095525118990098880
7970288 3 18264205816547785410
86090 222 18338807718815004131
960060 61 16226049972376584914
9841814 1 18187638090568831240

> <PUBCHEM_SHAPE_MULTIPOLES>
467.23
14.52
2.47
1.88
15.02
0.69
-0.2
-7.58
-1.97
-5.46
0.79
-0.48
-0.73
0.79

> <PUBCHEM_SHAPE_SELFOVERLAP>
1012.912

> <PUBCHEM_SHAPE_VOLUME>
253.6

> <PUBCHEM_COORDINATE_TYPE>
2
5
10

$$$$
59563769
  -OEChem-05102415033D

 40 42  0     1  0  0  0  0  0999 V2000
    0.9053    1.6962   -1.3021 O   0  0  0  0  0  0  0  0  0  0  0  0
    4.7303   -1.8085   -2.2458 O   0  0  0  0  0  0  0  0  0  0  0  0
   -0.1043    0.6727    0.5588 N   0  0  0  0  0  0  0  0  0  0  0  0
    4.2717    2.6596    1.1409 N   0  0  0  0  0  0  0  0  0  0  0  0
   -6.3237   -0.7184   -0.2581 N   0  0  0  0  0  0  0  0  0  0  0  0
    2.2558    1.2832    0.6604 C   0  0  1  0  0  0  0  0  0  0  0  0
    3.0448    0.0002    0.4509 C   0  0  0  0  0  0  0  0  0  0  0  0
    3.0681    2.5496    0.3206 C   0  0  0  0  0  0  0  0  0  0  0  0
    0.9570    1.2474   -0.1603 C   0  0  0  0  0  0  0  0  0  0  0  0
   -1.4212    0.4731    0.1425 C   0  0  0  0  0  0  0  0  0  0  0  0
    3.5324   -0.3195   -0.8163 C   0  0  0  0  0  0  0  0  0  0  0  0
    3.2805   -0.8574    1.5256 C   0  0  0  0  0  0  0  0  0  0  0  0
   -3.6727   -0.3232    0.6041 C   0  0  0  0  0  0  0  0  0  0  0  0
   -2.3442   -0.1147    1.0093 C   0  0  0  0  0  0  0  0  0  0  0  0
   -4.0642    0.0697   -0.6925 C   0  0  0  0  0  0  0  0  0  0  0  0
   -1.8119    0.8598   -1.1373 C   0  0  0  0  0  0  0  0  0  0  0  0
    4.2557   -1.4966   -1.0089 C   0  0  0  0  0  0  0  0  0  0  0  0
    4.0034   -2.0346    1.3330 C   0  0  0  0  0  0  0  0  0  0  0  0
   -3.1272    0.6605   -1.5562 C   0  0  0  0  0  0  0  0  0  0  0  0
    4.4914   -2.3542    0.0658 C   0  0  0  0  0  0  0  0  0  0  0  0
   -4.6214   -0.9098    1.4497 C   0  0  0  0  0  0  0  0  0  0  0  0
   -5.3928   -0.1533   -1.0597 C   0  0  0  0  0  0  0  0  0  0  0  0
   -5.9130   -1.0816    0.9756 C   0  0  0  0  0  0  0  0  0  0  0  0
    1.9757    1.3605    1.7209 H   0  0  0  0  0  0  0  0  0  0  0  0
    3.3563    2.5710   -0.7369 H   0  0  0  0  0  0  0  0  0  0  0  0
    2.4452    3.4355    0.4923 H   0  0  0  0  0  0  0  0  0  0  0  0
    0.1013    0.3517    1.5023 H   0  0  0  0  0  0  0  0  0  0  0  0
    3.3555    0.3375   -1.6638 H   0  0  0  0  0  0  0  0  0  0  0  0
    2.9065   -0.6223    2.5184 H   0  0  0  0  0  0  0  0  0  0  0  0
   -2.0309   -0.4144    2.0083 H   0  0  0  0  0  0  0  0  0  0  0  0
   -1.1560    1.3177   -1.8641 H   0  0  0  0  0  0  0  0  0  0  0  0
    4.7720    3.5116    0.8904 H   0  0  0  0  0  0  0  0  0  0  0  0
    4.9058    1.8895    0.9327 H   0  0  0  0  0  0  0  0  0  0  0  0
   -3.4167    0.9674   -2.5588 H   0  0  0  0  0  0  0  0  0  0  0  0
    4.1865   -2.7025    2.1697 H   0  0  0  0  0  0  0  0  0  0  0  0
    5.0531   -3.2743   -0.0709 H   0  0  0  0  0  0  0  0  0  0  0  0
   -4.3660   -1.2279    2.4558 H   0  0  0  0  0  0  0  0  0  0  0  0
   -5.7598    0.1258   -2.0437 H   0  0  0  0  0  0  0  0  0  0  0  0
   -6.6765   -1.5326    1.6012 H   0  0  0  0  0  0  0  0  0  0  0  0
    5.2056   -2.6557   -2.1964 H   0  0  0  0  0  0  0  0  0  0  0  0
  1  9  2  0  0  0  0
  2 17  1  0  0  0  0
  2 40  1  0  0  0  0
  3  9  1  0  0  0  0
  3 10  1  0  0  0  0
  3 27  1  0  0  0  0
  4  8  1  0  0  0  0
  4 32  1  0  0  0  0
  4 33  1  0  0  0  0
  5 22  2  0  0  0  0
  5 23  1  0  0  0  0
  6  7  1  0  0  0  0
  6  8  1  0  0  0  0
  6  9  1  0  0  0  0
  6 24  1  0  0  0  0
  7 11  2  0  0  0  0
  7 12  1  0  0  0  0
  8 25  1  0  0  0  0
  8 26  1  0  0  0  0
 10 14  2  0  0  0  0
 10 16  1  0  0  0  0
 11 17  1  0  0  0  0
 11 28  1  0  0  0  0
 12 18  2  0  0  0  0
 12 29  1  0  0  0  0
 13 14  1  0  0  0  0
 13 15  2  0  0  0  0
 13 21  1  0  0  0  0
 14 30  1  0  0  0  0
 15 19  1  0  0  0  0
 15 22  1  0  0  0  0
 16 19  2  0  0  0  0
 16 31  1  0  0  0  0
 17 20  2  0  0  0  0
 18 20  1  0  0  0  0
 18 35  1  0  0  0  0
 19 34  1  0  0  0  0
 20 36  1  0  0  0  0
 21 23  2  0  0  0  0
 21 37  1  0  0  0  0
 22 38  1  0  0  0  0
 23 39  1  0  0  0  0
M  END
> <PUBCHEM_COMPOUND_CID>
59563769

> <PUBCHEM_CONFORMER_RMSD>
0.8

> <PUBCHEM_CONFORMER_DIVERSEORDER>
1
47
90
82
25
89
65
17
97
59
61
83
91
6
9
74
22
53
41
76
45
63
68
4
96
26
31
58
64
95
28
44
81
49
12
78
77
48
69
27
8
70
23
54
57
72
37
32
60
87
3
13
55
16
62
7
46
14
92
73
11
67
50
51
30
94
84
21
86
36
88
39
10
15
85
66
52
19
42
40
80
75
79
5
93
56
18
35
34
43
38
71
29
2
33
20
24

> <PUBCHEM_MMFF94_PARTIAL_CHARGES>
35
1 -0.57
10 0.12
11 -0.15
12 -0.15
14 -0.15
16 -0.15
17 0.08
18 -0.15
19 -0.15
2 -0.53
20 -0.15
21 -0.15
22 0.16
23 0.16
27 0.37
28 0.15
29 0.15
3 -0.55
30 0.15
31 0.15
32 0.36
33 0.36
34 0.15
35 0.15
36 0.15
37 0.15
38 0.15
39 0.15
4 -0.99
40 0.45
5 -0.62
6 0.2
7 -0.14
8 0.27
9 0.57

> <PUBCHEM_EFFECTIVE_ROTOR_COUNT>
5

> <PUBCHEM_PHARMACOPHORE_FEATURES>
9
1 1 acceptor
1 2 donor
1 3 donor
1 4 cation
1 4 donor
1 5 acceptor
6 10 13 14 15 16 19 rings
6 5 13 15 21 22 23 rings
6 7 11 12 17 18 20 rings

> <PUBCHEM_HEAVY_ATOM_COUNT>
23

> <PUBCHEM_ATOM_DEF_STEREO_COUNT>
0

> <PUBCHEM_ATOM_UDEF_STEREO_COUNT>
1

> <PUBCHEM_BOND_DEF_STEREO_COUNT>
0

> <PUBCHEM_BOND_UDEF_STEREO_COUNT>
0

> <PUBCHEM_ISOTOPIC_ATOM_COUNT>
0

> <PUBCHEM_COMPONENT_COUNT>
1

> <PUBCHEM_CACTVS_TAUTO_COUNT>
35

> <PUBCHEM_CONFORMER_ID>
038CDEF900000001

> <PUBCHEM_MMFF94_ENERGY>
67.2403

> <PUBCHEM_FEATURE_SELFOVERLAP>
45.698

> <PUBCHEM_SHAPE_FINGERPRINT>
10369192 42 17898005991811534564
10498660 4 12107801695772850038
10928967 22 18333731286519401179
11059845 2 15479326404502129650
11595378 159 16774086167438019553
12616971 3 17632292380881565029
12633257 1 17918269857159656198
12670546 177 16008752381177522359
13073987 5 18342178895170487721
13533116 47 18130788988236173897
13914758 101 17917426477093428201
13955234 65 18271801380553534768
14211702 104 18266461104397193191
14251758 9 17917151577105077289
14251764 30 18057898943911969806
14341114 176 14620793765423208894
14341114 328 15123492719104073066
14366163 111 13912609346431221702
14528608 73 13334740132807520371
14910302 57 17458334239403915439
15142526 21 16839922922413340096
15183329 4 17749668494279039797
15664445 248 16371016251530636572
17349148 13 17989211447338359687
17844677 252 18410291398227058569
1813 80 18130511821370247268
18222031 100 18272933782729366910
193927 3 18341898450347266754
20369508 70 18335696127220377578
20645477 70 18412259549694153480
20693207 138 17968090910841631517
21033650 10 15720230570199509748
21279426 13 18041829637575305029
21344244 78 17560792226180230952
22061861 79 18334853922788454423
2215653 11 18040710364644549583
22182313 1 17968360321355661997
22224240 67 18195235840618995464
2303208 19 18040439910622414563
23081809 10 17275107258649930681
23559900 14 17458067092385168565
239999 70 18334294305745485528
312423 11 18271254853974992760
3298306 158 17968085379472952467
3421961 26 18409162204180195608
345986 75 17917144988171403010
34797466 226 17458633362522441645
3680242 22 14045749213934531971
44317340 157 8214146274440396421
465052 167 18412548695308784502
5104073 3 18410289186261041889
5281201 14 18259420827489154629
543368 44 13190351188138362671
6823239 73 17967250914349881504
7970288 3 18198909115245772478
8863177 126 18334019431764705131
960060 61 17385729075563891518
9841814 1 18412538783156806936

> <PUBCHEM_SHAPE_MULTIPOLES>
446.65
14.37
2.28
1.62
11.97
0.46
0.42
-6.98
0.54
-4.12
-0.38
-0.77
-0.31
1.99

> <PUBCHEM_SHAPE_SELFOVERLAP>
973.854

> <PUBCHEM_SHAPE_VOLUME>
240.7

> <PUBCHEM_COORDINATE_TYPE>
2
5
10

$$$$
46183898
  -OEChem-05102415033D

 40 42  0     1  0  0  0  0  0999 V2000
    1.5271   -0.8726   -0.9269 O   0  0  0  0  0  0  0  0  0  0  0  0
   -5.3105   -2.1660   -0.8604 O   0  0  0  0  0  0  0  0  0  0  0  0
    0.2649    0.7857    0.1620 N   0  0  0  0  0  0  0  0  0  0  0  0
    1.9910    3.2162   -0.9200 N   0  0  0  0  0  0  0  0  0  0  0  0
   -6.0356   -0.2875    0.2604 N   0  0  0  0  0  0  0  0  0  0  0  0
    2.6893    1.0225    0.0237 C   0  0  1  0  0  0  0  0  0  0  0  0
    3.8947    0.1166    0.2216 C   0  0  0  0  0  0  0  0  0  0  0  0
    2.9165    2.0950   -1.0616 C   0  0  0  0  0  0  0  0  0  0  0  0
    1.4443    0.1845   -0.3080 C   0  0  0  0  0  0  0  0  0  0  0  0
   -1.0460    0.3210    0.0477 C   0  0  0  0  0  0  0  0  0  0  0  0
   -3.4135    0.6073    0.4680 C   0  0  0  0  0  0  0  0  0  0  0  0
   -3.6618   -0.6136   -0.1815 C   0  0  0  0  0  0  0  0  0  0  0  0
   -2.0982    1.0694    0.5788 C   0  0  0  0  0  0  0  0  0  0  0  0
    4.1910   -0.3832    1.4896 C   0  0  0  0  0  0  0  0  0  0  0  0
    4.7041   -0.2143   -0.8651 C   0  0  0  0  0  0  0  0  0  0  0  0
   -1.3002   -0.8903   -0.5959 C   0  0  0  0  0  0  0  0  0  0  0  0
   -2.6076   -1.3621   -0.7131 C   0  0  0  0  0  0  0  0  0  0  0  0
   -4.5289    1.3780    1.0181 C   0  0  0  0  0  0  0  0  0  0  0  0
   -5.0622   -1.1038   -0.2991 C   0  0  0  0  0  0  0  0  0  0  0  0
    5.2968   -1.2140    1.6711 C   0  0  0  0  0  0  0  0  0  0  0  0
    5.8098   -1.0450   -0.6838 C   0  0  0  0  0  0  0  0  0  0  0  0
    6.1062   -1.5448    0.5843 C   0  0  0  0  0  0  0  0  0  0  0  0
   -5.7712    0.9011    0.8902 C   0  0  0  0  0  0  0  0  0  0  0  0
    2.5220    1.5353    0.9820 H   0  0  0  0  0  0  0  0  0  0  0  0
    2.7853    1.6718   -2.0642 H   0  0  0  0  0  0  0  0  0  0  0  0
    3.9343    2.4979   -0.9983 H   0  0  0  0  0  0  0  0  0  0  0  0
    0.3665    1.6761    0.6444 H   0  0  0  0  0  0  0  0  0  0  0  0
   -1.8930    2.0136    1.0797 H   0  0  0  0  0  0  0  0  0  0  0  0
    3.5671   -0.1354    2.3442 H   0  0  0  0  0  0  0  0  0  0  0  0
    4.4921    0.1429   -1.8681 H   0  0  0  0  0  0  0  0  0  0  0  0
   -0.5378   -1.5229   -1.0282 H   0  0  0  0  0  0  0  0  0  0  0  0
   -2.7850   -2.3078   -1.2175 H   0  0  0  0  0  0  0  0  0  0  0  0
   -4.3348    2.3193    1.5187 H   0  0  0  0  0  0  0  0  0  0  0  0
    2.1231    3.6570   -0.0107 H   0  0  0  0  0  0  0  0  0  0  0  0
    2.2115    3.9264   -1.6169 H   0  0  0  0  0  0  0  0  0  0  0  0
    5.5271   -1.6039    2.6582 H   0  0  0  0  0  0  0  0  0  0  0  0
    6.4379   -1.3062   -1.5305 H   0  0  0  0  0  0  0  0  0  0  0  0
    6.9665   -2.1925    0.7252 H   0  0  0  0  0  0  0  0  0  0  0  0
   -6.6339    1.4289    1.2778 H   0  0  0  0  0  0  0  0  0  0  0  0
   -7.0066   -0.5809    0.2047 H   0  0  0  0  0  0  0  0  0  0  0  0
  1  9  2  0  0  0  0
  2 19  2  0  0  0  0
  3  9  1  0  0  0  0
  3 10  1  0  0  0  0
  3 27  1  0  0  0  0
  4  8  1  0  0  0  0
  4 34  1  0  0  0  0
  4 35  1  0  0  0  0
  5 19  1  0  0  0  0
  5 23  1  0  0  0  0
  5 40  1  0  0  0  0
  6  7  1  0  0  0  0
  6  8  1  0  0  0  0
  6  9  1  0  0  0  0
  6 24  1  0  0  0  0
  7 14  2  0  0  0  0
  7 15  1  0  0  0  0
  8 25  1  0  0  0  0
  8 26  1  0  0  0  0
 10 13  2  0  0  0  0
 10 16  1  0  0  0  0
 11 12  2  0  0  0  0
 11 13  1  0  0  0  0
 11 18  1  0  0  0  0
 12 17  1  0  0  0  0
 12 19  1  0  0  0  0
 13 28  1  0  0  0  0
 14 20  1  0  0  0  0
 14 29  1  0  0  0  0
 15 21  2  0  0  0  0
 15 30  1  0  0  0  0
 16 17  2  0  0  0  0
 16 31  1  0  0  0  0
 17 32  1  0  0  0  0
 18 23  2  0  0  0  0
 18 33  1  0  0  0  0
 20 22  2  0  0  0  0
 20 36  1  0  0  0  0
 21 22  1  0  0  0  0
 21 37  1  0  0  0  0
 22 38  1  0  0  0  0
 23 39  1  0  0  0  0
M  END
> <PUBCHEM_COMPOUND_CID>
46183898

> <PUBCHEM_CONFORMER_RMSD>
0.8

> <PUBCHEM_CONFORMER_DIVERSEORDER>
1
28
35
11
13
23
26
37
6
12
24
2
10
29
30
15
34
8
19
20
33
22
17
32
31
27
5
18
21
14
9
3
36
4
25
16
7

> <PUBCHEM_MMFF94_PARTIAL_CHARGES>
37
1 -0.57
10 0.12
11 0.03
12 0.09
13 -0.15
14 -0.15
15 -0.15
16 -0.15
17 -0.15
18 -0.18
19 0.54
2 -0.57
20 -0.15
21 -0.15
22 -0.15
23 -0.04
27 0.37
28 0.15
29 0.15
3 -0.55
30 0.15
31 0.15
32 0.15
33 0.15
34 0.36
35 0.36
36 0.15
37 0.15
38 0.15
39 0.15
4 -0.99
40 0.37
5 -0.54
6 0.2
7 -0.14
8 0.27
9 0.57

> <PUBCHEM_EFFECTIVE_ROTOR_COUNT>
5

> <PUBCHEM_PHARMACOPHORE_FEATURES>
9
1 1 acceptor
1 2 acceptor
1 3 donor
1 4 cation
1 4 donor
1 5 donor
6 10 11 12 13 16 17 rings
6 5 11 12 18 19 23 rings
6 7 14 15 20 21 22 rings

> <PUBCHEM_HEAVY_ATOM_COUNT>
23

> <PUBCHEM_ATOM_DEF_STEREO_COUNT>
0

> <PUBCHEM_ATOM_UDEF_STEREO_COUNT>
1

> <PUBCHEM_BOND_DEF_STEREO_COUNT>
0

> <PUBCHEM_BOND_UDEF_STEREO_COUNT>
0

> <PUBCHEM_ISOTOPIC_ATOM_COUNT>
0

> <PUBCHEM_COMPONENT_COUNT>
1

> <PUBCHEM_CACTVS_TAUTO_COUNT>
25

> <PUBCHEM_CONFORMER_ID>
02C0B5DA00000001

> <PUBCHEM_MMFF94_ENERGY>
66.4466

> <PUBCHEM_FEATURE_SELFOVERLAP>
45.697

> <PUBCHEM_SHAPE_FINGERPRINT>
10 15 17131541813075942770
10319926 262 17917708006881353707
10366900 7 17022902345784005672
11315181 36 18343865528510758185
11405975 8 18261958556223511291
12107183 9 18338239250139278785
12166972 35 18343023306683065136
12236239 1 18410856576819671760
12516196 113 18260264136492336232
12596602 18 18131063840568714338
12616971 3 18409455799660240289
12633257 1 18408325488289040094
13073987 5 18269837674013152161
13533116 47 18261392307735388236
13911852 28 17970337123504634970
13914758 101 18186793652985730533
14251764 18 18411980274215445534
14739800 52 17772747406276299800
15183329 4 18335700529029157951
15188451 53 18130775785264411503
15348495 7 17203319052659582514
15461852 350 16773788217067169925
1577012 14 18341619247767296333
15788980 27 18342179972526367817
17349148 13 18342741827284234142
17857418 61 18407757036435208546
1813 80 18187650163769223820
18222031 100 18408040702430653076
18681886 176 18201158849411426028
19489759 90 17989487407671923579
20028762 73 18342453759723518446
21033648 29 16558453198415356106
21267235 1 18341621433826327207
21365058 113 16081379531160831206
21709351 56 18408882932379393637
21792934 111 18060700598819097833
22061861 79 16153425034581054962
2215653 11 15430031067543407547
2303208 19 16008754619166525265
23081809 10 18412267272124466669
23402539 116 18273493468655310309
23522609 53 18044687276221730660
23557571 272 17417542306126061624
23559900 14 14129347316361004671
2767999 5 11383826065567289330
3004659 81 18341619226302840428
314194 84 17821728300019670130
338550 245 18201721781763349598
345986 75 17823962464919366128
351380 3 18259982648351149010
3545911 37 17917716764272021847
4073 2 17969790876636290464
4214541 1 18273500065841127849
4340502 62 14046024100272882788
46194498 28 15140685774312659686
465052 167 18260833691936848458
5104073 3 18271530904766198489
559249 180 18413106139456750575
59755656 215 17703237217491620998
59755656 520 17676210174115120019
67856867 119 18341612684582741592
9981440 41 17328299663506235256

> <PUBCHEM_SHAPE_MULTIPOLES>
446.65
16.39
2.04
1.2
1.34
1.02
-0.25
-6.03
-3.04
-0.31
0.59
-0.98
-0.04
-2.19

> <PUBCHEM_SHAPE_SELFOVERLAP>
971.182

> <PUBCHEM_SHAPE_VOLUME>
240.6

> <PUBCHEM_COORDINATE_TYPE>
2
5
10

$$$$
59563782
  -OEChem-05102415033D

 43 45  0     1  0  0  0  0  0999 V2000
    0.4636    1.9912   -1.4133 O   0  0  0  0  0  0  0  0  0  0  0  0
    4.6440   -3.8547   -0.8518 O   0  0  0  0  0  0  0  0  0  0  0  0
   -0.3986    0.9128    0.4901 N   0  0  0  0  0  0  0  0  0  0  0  0
    3.7536    3.3613    0.9379 N   0  0  0  0  0  0  0  0  0  0  0  0
   -6.4506   -1.1423   -0.1674 N   0  0  0  0  0  0  0  0  0  0  0  0
    1.8854    1.7698    0.5297 C   0  0  1  0  0  0  0  0  0  0  0  0
    2.8013    0.5719    0.3324 C   0  0  0  0  0  0  0  0  0  0  0  0
    2.5536    3.1057    0.1451 C   0  0  0  0  0  0  0  0  0  0  0  0
    0.5830    1.5781   -0.2632 C   0  0  0  0  0  0  0  0  0  0  0  0
    3.2974    0.2751   -0.9371 C   0  0  0  0  0  0  0  0  0  0  0  0
    3.1430   -0.2316    1.4203 C   0  0  0  0  0  0  0  0  0  0  0  0
   -1.6945    0.5661    0.1057 C   0  0  0  0  0  0  0  0  0  0  0  0
    4.4769   -1.6288   -0.0309 C   0  0  0  0  0  0  0  0  0  0  0  0
    4.1351   -0.8253   -1.1186 C   0  0  0  0  0  0  0  0  0  0  0  0
    3.9807   -1.3320    1.2386 C   0  0  0  0  0  0  0  0  0  0  0  0
   -3.8408   -0.4505    0.6311 C   0  0  0  0  0  0  0  0  0  0  0  0
   -2.5345   -0.0940    1.0041 C   0  0  0  0  0  0  0  0  0  0  0  0
   -4.2950   -0.1324   -0.6656 C   0  0  0  0  0  0  0  0  0  0  0  0
   -2.1469    0.8786   -1.1741 C   0  0  0  0  0  0  0  0  0  0  0  0
   -3.4413    0.5324   -1.5613 C   0  0  0  0  0  0  0  0  0  0  0  0
    5.3722   -2.8057   -0.2257 C   0  0  0  0  0  0  0  0  0  0  0  0
   -4.7069   -1.1127    1.5088 C   0  0  0  0  0  0  0  0  0  0  0  0
   -5.5991   -0.5024   -1.0003 C   0  0  0  0  0  0  0  0  0  0  0  0
   -5.9816   -1.4305    1.0654 C   0  0  0  0  0  0  0  0  0  0  0  0
    1.6182    1.8430    1.5938 H   0  0  0  0  0  0  0  0  0  0  0  0
    2.8187    3.1315   -0.9182 H   0  0  0  0  0  0  0  0  0  0  0  0
    1.8441    3.9253    0.3098 H   0  0  0  0  0  0  0  0  0  0  0  0
    3.0422    0.8862   -1.7981 H   0  0  0  0  0  0  0  0  0  0  0  0
    2.7632   -0.0137    2.4148 H   0  0  0  0  0  0  0  0  0  0  0  0
   -0.1431    0.6380    1.4361 H   0  0  0  0  0  0  0  0  0  0  0  0
    4.5151   -1.0478   -2.1123 H   0  0  0  0  0  0  0  0  0  0  0  0
    4.2369   -1.9504    2.0947 H   0  0  0  0  0  0  0  0  0  0  0  0
   -2.1734   -0.3349    2.0028 H   0  0  0  0  0  0  0  0  0  0  0  0
    4.1568    4.2547    0.6581 H   0  0  0  0  0  0  0  0  0  0  0  0
    4.4613    2.6571    0.7341 H   0  0  0  0  0  0  0  0  0  0  0  0
   -1.5562    1.3851   -1.9242 H   0  0  0  0  0  0  0  0  0  0  0  0
   -3.7797    0.7829   -2.5643 H   0  0  0  0  0  0  0  0  0  0  0  0
    5.7653   -3.1751    0.7276 H   0  0  0  0  0  0  0  0  0  0  0  0
    6.2261   -2.5375   -0.8575 H   0  0  0  0  0  0  0  0  0  0  0  0
   -4.4012   -1.3777    2.5164 H   0  0  0  0  0  0  0  0  0  0  0  0
   -6.0113   -0.2873   -1.9824 H   0  0  0  0  0  0  0  0  0  0  0  0
   -6.6818   -1.9438    1.7164 H   0  0  0  0  0  0  0  0  0  0  0  0
    5.2602   -4.5974   -0.9713 H   0  0  0  0  0  0  0  0  0  0  0  0
  1  9  2  0  0  0  0
  2 21  1  0  0  0  0
  2 43  1  0  0  0  0
  3  9  1  0  0  0  0
  3 12  1  0  0  0  0
  3 30  1  0  0  0  0
  4  8  1  0  0  0  0
  4 34  1  0  0  0  0
  4 35  1  0  0  0  0
  5 23  2  0  0  0  0
  5 24  1  0  0  0  0
  6  7  1  0  0  0  0
  6  8  1  0  0  0  0
  6  9  1  0  0  0  0
  6 25  1  0  0  0  0
  7 10  2  0  0  0  0
  7 11  1  0  0  0  0
  8 26  1  0  0  0  0
  8 27  1  0  0  0  0
 10 14  1  0  0  0  0
 10 28  1  0  0  0  0
 11 15  2  0  0  0  0
 11 29  1  0  0  0  0
 12 17  2  0  0  0  0
 12 19  1  0  0  0  0
 13 14  2  0  0  0  0
 13 15  1  0  0  0  0
 13 21  1  0  0  0  0
 14 31  1  0  0  0  0
 15 32  1  0  0  0  0
 16 17  1  0  0  0  0
 16 18  2  0  0  0  0
 16 22  1  0  0  0  0
 17 33  1  0  0  0  0
 18 20  1  0  0  0  0
 18 23  1  0  0  0  0
 19 20  2  0  0  0  0
 19 36  1  0  0  0  0
 20 37  1  0  0  0  0
 21 38  1  0  0  0  0
 21 39  1  0  0  0  0
 22 24  2  0  0  0  0
 22 40  1  0  0  0  0
 23 41  1  0  0  0  0
 24 42  1  0  0  0  0
M  END
> <PUBCHEM_COMPOUND_CID>
59563782

> <PUBCHEM_CONFORMER_RMSD>
0.8

> <PUBCHEM_CONFORMER_DIVERSEORDER>
1
7
39
31
20
60
52
48
63
36
47
56
28
37
55
51
43
41
11
34
54
50
25
23
40
59
58
45
22
8
30
19
24
66
2
3
32
64
10
62
27
13
65
15
53
12
61
38
9
4
17
29
57
49
6
16
5
44
35
46
26
33
14
42
21
18

> <PUBCHEM_MMFF94_PARTIAL_CHARGES>
36
1 -0.57
10 -0.15
11 -0.15
12 0.12
13 -0.14
14 -0.15
15 -0.15
17 -0.15
19 -0.15
2 -0.68
20 -0.15
21 0.42
22 -0.15
23 0.16
24 0.16
28 0.15
29 0.15
3 -0.55
30 0.37
31 0.15
32 0.15
33 0.15
34 0.36
35 0.36
36 0.15
37 0.15
4 -0.99
40 0.15
41 0.15
42 0.15
43 0.4
5 -0.62
6 0.2
7 -0.14
8 0.27
9 0.57

> <PUBCHEM_EFFECTIVE_ROTOR_COUNT>
6

> <PUBCHEM_PHARMACOPHORE_FEATURES>
10
1 1 acceptor
1 2 acceptor
1 2 donor
1 3 donor
1 4 cation
1 4 donor
1 5 acceptor
6 12 16 17 18 19 20 rings
6 5 16 18 22 23 24 rings
6 7 10 11 13 14 15 rings

> <PUBCHEM_HEAVY_ATOM_COUNT>
24

> <PUBCHEM_ATOM_DEF_STEREO_COUNT>
0

> <PUBCHEM_ATOM_UDEF_STEREO_COUNT>
1

> <PUBCHEM_BOND_DEF_STEREO_COUNT>
0

> <PUBCHEM_BOND_UDEF_STEREO_COUNT>
0

> <PUBCHEM_ISOTOPIC_ATOM_COUNT>
0

> <PUBCHEM_COMPONENT_COUNT>
1

> <PUBCHEM_CACTVS_TAUTO_COUNT>
5

> <PUBCHEM_CONFORMER_ID>
038CDF0600000001

> <PUBCHEM_MMFF94_ENERGY>
69.1431

> <PUBCHEM_FEATURE_SELFOVERLAP>
50.774

> <PUBCHEM_SHAPE_FINGERPRINT>
10319926 262 14045741521563079204
10369192 42 17680707326849549052
10498660 4 7853560332067168526
10912923 1 17417533639577974529
10928967 22 18113617876338237547
11128504 68 14201394989129856499
11595378 159 16916798400320650177
11796584 16 17968652692890924446
12107183 9 18057055609797815201
12363563 72 18339082575784012372
12616971 3 17704351091632153925
12633257 1 15482377699497668930
13073987 5 18342462590708645857
13533116 47 18342177812527200249
13782708 43 18261392282762435899
13911852 28 18268995284744803990
13914758 101 18060417985802686033
13955234 65 18200590431885970888
14251740 57 18335703874745423427
14251764 30 18338802208629815518
14341114 328 15123496021896857402
14347424 109 18272938232658663225
14528608 73 12757149095546278451
14866123 147 17977667507102011113
14910302 57 17603857932071429951
15183329 4 16877941607765540047
15575132 122 12973872694806230647
17349148 13 17988650717962028271
17844677 252 18411138048103321577
17859628 70 18413389852243076888
17870717 6 17385443216063810115
1813 80 18131078082727811580
193927 3 18409167679756959232
20645477 70 18408599292507089272
20693207 138 17894623751571329349
20775438 99 18190733335623041186
21033650 10 16153984634428674941
21130935 74 18339650057445409371
21279426 13 18041548179810086117
21344244 78 17846770828193395024
21682296 61 18410577258597571439
22061861 79 18333728040087828743
2215653 11 18040709286655146615
2303208 19 17894917364879752395
23559900 14 17676208000344352325
23569914 152 17616780290675473359
239999 70 17968372459307819312
3004659 81 17095237004209992794
3089732 80 18333736810116278243
312423 11 18412835684965740761
314194 84 18343018883193375390
3421961 26 18412262844140031808
345986 75 17703795790672829680
34797466 226 17023190478350168637
44317340 157 8790613623898054029
46194498 28 17821451278929106004
465052 167 18413111662399727662
5104073 3 18410571786661712777
5309563 4 18268993072973887542
543368 44 11891339755460895959
6823239 73 17749383793223208064
7970288 3 18340770325869736078
8863177 126 18261116326206738651
960060 61 17458348545686595446

> <PUBCHEM_SHAPE_MULTIPOLES>
467.23
15
3.13
1.44
12.01
0.05
0.02
-11.53
-0.1
-6.58
0.04
0.47
-0.09
1.97

> <PUBCHEM_SHAPE_SELFOVERLAP>
1012.911

> <PUBCHEM_SHAPE_VOLUME>
253.9

> <PUBCHEM_COORDINATE_TYPE>
2
5
10

$$$$
46184600
  -OEChem-05102415033D

 39 41  0     1  0  0  0  0  0999 V2000
    6.7903    1.8857   -0.3496 F   0  0  0  0  0  0  0  0  0  0  0  0
    1.0475    0.5901    1.1197 O   0  0  0  0  0  0  0  0  0  0  0  0
   -0.3414   -0.7435   -0.2299 N   0  0  0  0  0  0  0  0  0  0  0  0
    1.1824   -3.4563    0.3832 N   0  0  0  0  0  0  0  0  0  0  0  0
   -6.5548    0.8792   -0.0197 N   0  0  0  0  0  0  0  0  0  0  0  0
    2.0560   -1.1922   -0.1657 C   0  0  1  0  0  0  0  0  0  0  0  0
    3.3304   -0.3639   -0.2150 C   0  0  0  0  0  0  0  0  0  0  0  0
    2.1944   -2.4548    0.7096 C   0  0  0  0  0  0  0  0  0  0  0  0
    0.8816   -0.3306    0.3245 C   0  0  0  0  0  0  0  0  0  0  0  0
   -1.6110   -0.2041   -0.0188 C   0  0  0  0  0  0  0  0  0  0  0  0
    3.6675    0.3281   -1.3784 C   0  0  0  0  0  0  0  0  0  0  0  0
    4.1622   -0.2958    0.9026 C   0  0  0  0  0  0  0  0  0  0  0  0
   -4.0032   -0.2271   -0.4586 C   0  0  0  0  0  0  0  0  0  0  0  0
   -2.7194   -0.7599   -0.6602 C   0  0  0  0  0  0  0  0  0  0  0  0
   -4.1596    0.8790    0.4021 C   0  0  0  0  0  0  0  0  0  0  0  0
   -1.7697    0.8883    0.8306 C   0  0  0  0  0  0  0  0  0  0  0  0
   -3.0373    1.4301    1.0424 C   0  0  0  0  0  0  0  0  0  0  0  0
    4.8363    1.0878   -1.4242 C   0  0  0  0  0  0  0  0  0  0  0  0
    5.3311    0.4639    0.8570 C   0  0  0  0  0  0  0  0  0  0  0  0
    5.6682    1.1557   -0.3064 C   0  0  0  0  0  0  0  0  0  0  0  0
   -5.1339   -0.7618   -1.0869 C   0  0  0  0  0  0  0  0  0  0  0  0
   -5.4506    1.3811    0.5780 C   0  0  0  0  0  0  0  0  0  0  0  0
   -6.3670   -0.1793   -0.8363 C   0  0  0  0  0  0  0  0  0  0  0  0
    1.8499   -1.5119   -1.1975 H   0  0  0  0  0  0  0  0  0  0  0  0
    2.0958   -2.2073    1.7728 H   0  0  0  0  0  0  0  0  0  0  0  0
    3.1768   -2.9194    0.5634 H   0  0  0  0  0  0  0  0  0  0  0  0
   -0.3107   -1.5394   -0.8634 H   0  0  0  0  0  0  0  0  0  0  0  0
    3.0270    0.2858   -2.2553 H   0  0  0  0  0  0  0  0  0  0  0  0
    3.9208   -0.8075    1.8292 H   0  0  0  0  0  0  0  0  0  0  0  0
   -2.5870   -1.6140   -1.3227 H   0  0  0  0  0  0  0  0  0  0  0  0
   -0.9616    1.3735    1.3595 H   0  0  0  0  0  0  0  0  0  0  0  0
    1.2806   -3.7378   -0.5914 H   0  0  0  0  0  0  0  0  0  0  0  0
    1.3440   -4.2941    0.9405 H   0  0  0  0  0  0  0  0  0  0  0  0
   -3.1448    2.2835    1.7083 H   0  0  0  0  0  0  0  0  0  0  0  0
    5.0988    1.6273   -2.3294 H   0  0  0  0  0  0  0  0  0  0  0  0
    5.9771    0.5206    1.7281 H   0  0  0  0  0  0  0  0  0  0  0  0
   -5.0621   -1.6128   -1.7573 H   0  0  0  0  0  0  0  0  0  0  0  0
   -5.6408    2.2313    1.2273 H   0  0  0  0  0  0  0  0  0  0  0  0
   -7.2665   -0.5654   -1.3047 H   0  0  0  0  0  0  0  0  0  0  0  0
  1 20  1  0  0  0  0
  2  9  2  0  0  0  0
  3  9  1  0  0  0  0
  3 10  1  0  0  0  0
  3 27  1  0  0  0  0
  4  8  1  0  0  0  0
  4 32  1  0  0  0  0
  4 33  1  0  0  0  0
  5 22  2  0  0  0  0
  5 23  1  0  0  0  0
  6  7  1  0  0  0  0
  6  8  1  0  0  0  0
  6  9  1  0  0  0  0
  6 24  1  0  0  0  0
  7 11  2  0  0  0  0
  7 12  1  0  0  0  0
  8 25  1  0  0  0  0
  8 26  1  0  0  0  0
 10 14  2  0  0  0  0
 10 16  1  0  0  0  0
 11 18  1  0  0  0  0
 11 28  1  0  0  0  0
 12 19  2  0  0  0  0
 12 29  1  0  0  0  0
 13 14  1  0  0  0  0
 13 15  2  0  0  0  0
 13 21  1  0  0  0  0
 14 30  1  0  0  0  0
 15 17  1  0  0  0  0
 15 22  1  0  0  0  0
 16 17  2  0  0  0  0
 16 31  1  0  0  0  0
 17 34  1  0  0  0  0
 18 20  2  0  0  0  0
 18 35  1  0  0  0  0
 19 20  1  0  0  0  0
 19 36  1  0  0  0  0
 21 23  2  0  0  0  0
 21 37  1  0  0  0  0
 22 38  1  0  0  0  0
 23 39  1  0  0  0  0
M  END
> <PUBCHEM_COMPOUND_CID>
46184600

> <PUBCHEM_CONFORMER_RMSD>
0.8

> <PUBCHEM_CONFORMER_DIVERSEORDER>
1
26
19
36
15
32
24
37
11
18
4
30
33
25
9
21
23
31
7
34
5
29
22
16
28
6
27
13
10
12
8
35
3
20
17
14
2

> <PUBCHEM_MMFF94_PARTIAL_CHARGES>
34
1 -0.19
10 0.12
11 -0.15
12 -0.15
14 -0.15
16 -0.15
17 -0.15
18 -0.15
19 -0.15
2 -0.57
20 0.19
21 -0.15
22 0.16
23 0.16
27 0.37
28 0.15
29 0.15
3 -0.55
30 0.15
31 0.15
32 0.36
33 0.36
34 0.15
35 0.15
36 0.15
37 0.15
38 0.15
39 0.15
4 -0.99
5 -0.62
6 0.2
7 -0.14
8 0.27
9 0.57

> <PUBCHEM_EFFECTIVE_ROTOR_COUNT>
5

> <PUBCHEM_PHARMACOPHORE_FEATURES>
8
1 2 acceptor
1 3 donor
1 4 cation
1 4 donor
1 5 acceptor
6 10 13 14 15 16 17 rings
6 5 13 15 21 22 23 rings
6 7 11 12 18 19 20 rings

> <PUBCHEM_HEAVY_ATOM_COUNT>
23

> <PUBCHEM_ATOM_DEF_STEREO_COUNT>
0

> <PUBCHEM_ATOM_UDEF_STEREO_COUNT>
1

> <PUBCHEM_BOND_DEF_STEREO_COUNT>
0

> <PUBCHEM_BOND_UDEF_STEREO_COUNT>
0

> <PUBCHEM_ISOTOPIC_ATOM_COUNT>
0

> <PUBCHEM_COMPONENT_COUNT>
1

> <PUBCHEM_CACTVS_TAUTO_COUNT>
3

> <PUBCHEM_CONFORMER_ID>
02C0B89800000001

> <PUBCHEM_MMFF94_ENERGY>
66.1573

> <PUBCHEM_FEATURE_SELFOVERLAP>
40.622

> <PUBCHEM_SHAPE_FINGERPRINT>
10 15 14634871981035149452
10090160 65 18259983756057137306
10554248 39 17912634719214228213
10595046 47 18412261701720643179
10670039 82 18269850748236733004
10688039 33 16008743598449528924
10968037 39 18131349722419142821
11405975 8 9439103369772385869
12107183 9 17405711376896856075
12236239 1 18413106143524754247
12516196 113 16200148802846992265
12616971 3 8286189557778968259
12788726 201 17632298909300459723
13533116 47 15936680463787503848
13631057 29 18265330793479666867
13685833 64 11024109841550505220
14251718 22 17989487428898898493
14528608 73 18343301474344579196
15183329 4 16343712010141651686
15348495 7 14490765597067490676
15537594 2 18131349705223741631
15788980 27 14057004922978310131
18222031 100 9295288339812756502
18335252 98 18260837016711118891
18681886 176 17131825508107555521
19319366 153 18410004412438509723
20511986 3 18339348691825816997
20554085 129 18201707488903186986
21033648 29 14117224006875070587
21054139 6 18340197591785330447
21150785 3 17417812872128108709
21267235 1 17703787077122877103
21365058 113 14333127506954669290
221357 26 15841834438865042336
2215653 11 15051729772839200597
22950370 63 10159702395785341530
2297311 6 16487257677618329273
23081809 10 18342454812221795723
23559900 14 16486964120814056697
23569917 315 18408324389274538306
239999 70 17203602701316655480
2767999 5 18259984894360731364
300161 21 18409726232217822263
3004659 81 18129665188737754678
3472631 163 18341618174347258436
34797466 226 16559031631636429040
406291 66 12678086440673950652
4073 2 18333454244534262387
4325135 7 18272932730272657292
4340502 62 17458065945592367331
474 4 18259990392082049486
53794403 172 18126844030763852896
542803 24 18333731316578098305
543368 44 18411983572587006541
5924683 9 15141540171718574761
59755656 215 17489870440174472548
59755656 520 18411414038406873782
8863177 126 12319153171070572957

> <PUBCHEM_SHAPE_MULTIPOLES>
445.24
16.87
1.98
1.16
3.42
1.52
-0.14
-7.79
-3.15
-1.44
0.39
-0.46
-0.15
-1.7

> <PUBCHEM_SHAPE_SELFOVERLAP>
971.551

> <PUBCHEM_SHAPE_VOLUME>
241.9

> <PUBCHEM_COORDINATE_TYPE>
2
5
10

$$$$
59563724
  -OEChem-05102415033D

 55 58  0     1  0  0  0  0  0999 V2000
    2.3617   -2.3021   -1.8381 O   0  0  0  0  0  0  0  0  0  0  0  0
   -4.2263   -0.2528    0.2615 O   0  0  0  0  0  0  0  0  0  0  0  0
   -6.4953   -0.2871    0.6488 O   0  0  0  0  0  0  0  0  0  0  0  0
    2.7575   -1.3638    0.2813 N   0  0  0  0  0  0  0  0  0  0  0  0
    0.8084   -5.7902    0.0722 N   0  0  0  0  0  0  0  0  0  0  0  0
    6.4425    3.8987    0.1806 N   0  0  0  0  0  0  0  0  0  0  0  0
    1.3799   -3.3690    0.0967 C   0  0  1  0  0  0  0  0  0  0  0  0
   -0.0658   -2.9150    0.2254 C   0  0  0  0  0  0  0  0  0  0  0  0
    1.5212   -4.7238   -0.6268 C   0  0  0  0  0  0  0  0  0  0  0  0
    2.2119   -2.2935   -0.6195 C   0  0  0  0  0  0  0  0  0  0  0  0
   -0.6247   -2.7165    1.4879 C   0  0  0  0  0  0  0  0  0  0  0  0
   -0.8327   -2.6960   -0.9191 C   0  0  0  0  0  0  0  0  0  0  0  0
   -2.7171   -2.0800    0.4617 C   0  0  0  0  0  0  0  0  0  0  0  0
   -1.9503   -2.2990    1.6060 C   0  0  0  0  0  0  0  0  0  0  0  0
   -2.1583   -2.2785   -0.8009 C   0  0  0  0  0  0  0  0  0  0  0  0
    3.5610   -0.2580    0.0001 C   0  0  0  0  0  0  0  0  0  0  0  0
   -4.1345   -1.6341    0.5879 C   0  0  0  0  0  0  0  0  0  0  0  0
    4.0164    0.5546    1.0397 C   0  0  0  0  0  0  0  0  0  0  0  0
    4.8246    1.6716    0.7721 C   0  0  0  0  0  0  0  0  0  0  0  0
    5.1716    1.9632   -0.5634 C   0  0  0  0  0  0  0  0  0  0  0  0
    3.9060    0.0333   -1.3176 C   0  0  0  0  0  0  0  0  0  0  0  0
    4.7080    1.1385   -1.6016 C   0  0  0  0  0  0  0  0  0  0  0  0
    5.2971    2.5053    1.7923 C   0  0  0  0  0  0  0  0  0  0  0  0
    5.9765    3.0813   -0.7905 C   0  0  0  0  0  0  0  0  0  0  0  0
    6.0902    3.5888    1.4465 C   0  0  0  0  0  0  0  0  0  0  0  0
   -5.4700    0.2965    0.3333 C   0  0  0  0  0  0  0  0  0  0  0  0
   -5.4307    1.7356   -0.0298 C   0  0  0  0  0  0  0  0  0  0  0  0
   -6.6041    2.4897   -0.0208 C   0  0  0  0  0  0  0  0  0  0  0  0
   -4.2200    2.3337   -0.3784 C   0  0  0  0  0  0  0  0  0  0  0  0
   -6.5666    3.8422   -0.3605 C   0  0  0  0  0  0  0  0  0  0  0  0
   -4.1823    3.6861   -0.7179 C   0  0  0  0  0  0  0  0  0  0  0  0
   -5.3557    4.4403   -0.7091 C   0  0  0  0  0  0  0  0  0  0  0  0
    1.8034   -3.5004    1.1029 H   0  0  0  0  0  0  0  0  0  0  0  0
    1.1548   -4.6691   -1.6585 H   0  0  0  0  0  0  0  0  0  0  0  0
    2.5825   -4.9928   -0.6864 H   0  0  0  0  0  0  0  0  0  0  0  0
   -0.0395   -2.8820    2.3884 H   0  0  0  0  0  0  0  0  0  0  0  0
   -0.4167   -2.8426   -1.9118 H   0  0  0  0  0  0  0  0  0  0  0  0
    2.5424   -1.4989    1.2668 H   0  0  0  0  0  0  0  0  0  0  0  0
   -2.3716   -2.1465    2.5961 H   0  0  0  0  0  0  0  0  0  0  0  0
   -2.7463   -2.1096   -1.6992 H   0  0  0  0  0  0  0  0  0  0  0  0
   -4.7666   -2.2209   -0.0907 H   0  0  0  0  0  0  0  0  0  0  0  0
   -4.5021   -1.7947    1.6091 H   0  0  0  0  0  0  0  0  0  0  0  0
    0.9349   -6.6661   -0.4335 H   0  0  0  0  0  0  0  0  0  0  0  0
   -0.1931   -5.6025    0.0635 H   0  0  0  0  0  0  0  0  0  0  0  0
    3.7422    0.3202    2.0672 H   0  0  0  0  0  0  0  0  0  0  0  0
    3.5909   -0.5459   -2.1740 H   0  0  0  0  0  0  0  0  0  0  0  0
    4.9685    1.3530   -2.6357 H   0  0  0  0  0  0  0  0  0  0  0  0
    5.0560    2.3201    2.8346 H   0  0  0  0  0  0  0  0  0  0  0  0
    6.2805    3.3620   -1.7952 H   0  0  0  0  0  0  0  0  0  0  0  0
    6.4753    4.2580    2.2090 H   0  0  0  0  0  0  0  0  0  0  0  0
   -7.5575    2.0427    0.2480 H   0  0  0  0  0  0  0  0  0  0  0  0
   -3.2827    1.7849   -0.3985 H   0  0  0  0  0  0  0  0  0  0  0  0
   -7.4801    4.4297   -0.3536 H   0  0  0  0  0  0  0  0  0  0  0  0
   -3.2397    4.1525   -0.9893 H   0  0  0  0  0  0  0  0  0  0  0  0
   -5.3264    5.4933   -0.9735 H   0  0  0  0  0  0  0  0  0  0  0  0
  1 10  2  0  0  0  0
  2 17  1  0  0  0  0
  2 26  1  0  0  0  0
  3 26  2  0  0  0  0
  4 10  1  0  0  0  0
  4 16  1  0  0  0  0
  4 38  1  0  0  0  0
  5  9  1  0  0  0  0
  5 43  1  0  0  0  0
  5 44  1  0  0  0  0
  6 24  2  0  0  0  0
  6 25  1  0  0  0  0
  7  8  1  0  0  0  0
  7  9  1  0  0  0  0
  7 10  1  0  0  0  0
  7 33  1  0  0  0  0
  8 11  2  0  0  0  0
  8 12  1  0  0  0  0
  9 34  1  0  0  0  0
  9 35  1  0  0  0  0
 11 14  1  0  0  0  0
 11 36  1  0  0  0  0
 12 15  2  0  0  0  0
 12 37  1  0  0  0  0
 13 14  2  0  0  0  0
 13 15  1  0  0  0  0
 13 17  1  0  0  0  0
 14 39  1  0  0  0  0
 15 40  1  0  0  0  0
 16 18  2  0  0  0  0
 16 21  1  0  0  0  0
 17 41  1  0  0  0  0
 17 42  1  0  0  0  0
 18 19  1  0  0  0  0
 18 45  1  0  0  0  0
 19 20  2  0  0  0  0
 19 23  1  0  0  0  0
 20 22  1  0  0  0  0
 20 24  1  0  0  0  0
 21 22  2  0  0  0  0
 21 46  1  0  0  0  0
 22 47  1  0  0  0  0
 23 25  2  0  0  0  0
 23 48  1  0  0  0  0
 24 49  1  0  0  0  0
 25 50  1  0  0  0  0
 26 27  1  0  0  0  0
 27 28  2  0  0  0  0
 27 29  1  0  0  0  0
 28 30  1  0  0  0  0
 28 51  1  0  0  0  0
 29 31  2  0  0  0  0
 29 52  1  0  0  0  0
 30 32  2  0  0  0  0
 30 53  1  0  0  0  0
 31 32  1  0  0  0  0
 31 54  1  0  0  0  0
 32 55  1  0  0  0  0
M  END
> <PUBCHEM_COMPOUND_CID>
59563724

> <PUBCHEM_CONFORMER_RMSD>
1

> <PUBCHEM_CONFORMER_DIVERSEORDER>
1
105
150
42
97
47
116
122
69
78
119
128
11
126
9
80
154
152
76
84
123
12
48
106
92
151
15
112
49
158
93
94
35
74
83
136
121
133
95
33
86
134
137
26
160
21
32
45
113
64
24
36
144
18
44
124
52
34
114
98
81
13
85
38
143
61
28
60
149
77
100
107
103
62
99
115
59
17
157
155
70
22
156
138
127
102
39
125
108
57
27
148
72
23
54
111
41
30
3
142
120
51
19
96
131
20
25
140
63
117
71
139
135
87
55
58
29
53
118
110
153
146
37
162
67
16
90
50
145
159
141
56
104
4
88
40
75
66
10
109
129
101
79
14
89
130
31
8
65
68
5
132
7
46
91
147
73
6
161
43
82
2

> <PUBCHEM_MMFF94_PARTIAL_CHARGES>
48
1 -0.57
10 0.57
11 -0.15
12 -0.15
13 -0.14
14 -0.15
15 -0.15
16 0.12
17 0.42
18 -0.15
2 -0.43
21 -0.15
22 -0.15
23 -0.15
24 0.16
25 0.16
26 0.63
27 0.09
28 -0.15
29 -0.15
3 -0.57
30 -0.15
31 -0.15
32 -0.15
36 0.15
37 0.15
38 0.37
39 0.15
4 -0.55
40 0.15
43 0.36
44 0.36
45 0.15
46 0.15
47 0.15
48 0.15
49 0.15
5 -0.99
50 0.15
51 0.15
52 0.15
53 0.15
54 0.15
55 0.15
6 -0.62
7 0.2
8 -0.14
9 0.27

> <PUBCHEM_EFFECTIVE_ROTOR_COUNT>
9

> <PUBCHEM_PHARMACOPHORE_FEATURES>
10
1 1 acceptor
1 3 acceptor
1 4 donor
1 5 cation
1 5 donor
1 6 acceptor
6 16 18 19 20 21 22 rings
6 27 28 29 30 31 32 rings
6 6 19 20 23 24 25 rings
6 8 11 12 13 14 15 rings

> <PUBCHEM_HEAVY_ATOM_COUNT>
32

> <PUBCHEM_ATOM_DEF_STEREO_COUNT>
0

> <PUBCHEM_ATOM_UDEF_STEREO_COUNT>
1

> <PUBCHEM_BOND_DEF_STEREO_COUNT>
0

> <PUBCHEM_BOND_UDEF_STEREO_COUNT>
0

> <PUBCHEM_ISOTOPIC_ATOM_COUNT>
0

> <PUBCHEM_COMPONENT_COUNT>
1

> <PUBCHEM_CACTVS_TAUTO_COUNT>
5

> <PUBCHEM_CONFORMER_ID>
038CDECC00000001

> <PUBCHEM_MMFF94_ENERGY>
94.9619

> <PUBCHEM_FEATURE_SELFOVERLAP>
50.774

> <PUBCHEM_SHAPE_FINGERPRINT>
10675989 125 18267586797258882624
10771551 21 18056483850487090464
10838868 160 18342170086287593673
10864689 126 18341618135703550084
10928967 22 11167678576204623927
11059845 2 18123438766596360250
11386260 185 17765145069549145423
11399510 152 17677634007049627675
12120059 20 10447640344941723774
12655364 74 17475515453261995756
14068700 686 18411144645410919719
14429114 114 18409167676047995981
14739800 52 18115303359429249683
14904385 31 18335415811326356228
15198563 99 17694499643230847671
15320291 9 17977377231563835285
15513586 35 16593658731792082086
15979999 66 17335347030397516687
16067689 134 16685983087022122729
16988056 13 18052259484285306342
16990350 14 18409165489809038730
19053607 189 18260276230377067509
19304152 47 18265060317170247211
19304671 126 17774734081736933716
20058555 10 18410293584576486633
20238998 120 17834958564755997602
20609170 109 16664029632159789473
21033648 29 18265624358493637390
21307412 95 9871482980554044443
21388113 180 18412545405310756713
21792938 324 17759778387938974570
21859007 373 18410576215183768972
22033318 11 17821999935633156368
23191077 185 18340195362919245871
23516275 100 18408037416660535245
23522609 53 17389102550176441028
23569914 2 16913659402446399936
2748736 6 18410002252211832361
2838139 119 18412821370018915815
3418910 222 16752689985258853408
376196 1 18337113375781005635
3918712 181 18335411358183910765
393628 179 18197765803309234280
437795 171 18189889834095203173
44249763 50 17916295229034398040
5047190 47 17471842607752464685
508180 173 17831319215136816834
5219985 13 18412544348791292302
5223283 242 17050790123231721647
5265222 85 18339359802822614953
6176135 31 18264199223408911185
6677587 24 17632570505446331524
9849439 229 18410007758280745602
9980921 52 11964542010013324913

> <PUBCHEM_SHAPE_MULTIPOLES>
625.99
18.85
7.88
1.39
7.39
2.33
0.11
-31.92
0.97
-0.05
-0.48
-1.64
-0.04
3.28

> <PUBCHEM_SHAPE_SELFOVERLAP>
1367.641

> <PUBCHEM_SHAPE_VOLUME>
336.6

> <PUBCHEM_COORDINATE_TYPE>
2
5
10

$$$$
127031527
  -OEChem-05102415033D

 39 41  0     1  0  0  0  0  0999 V2000
    1.3334   -0.7840   -1.0590 O   0  0  0  0  0  0  0  0  0  0  0  0
   -0.0055    0.6690    0.2159 N   0  0  0  0  0  0  0  0  0  0  0  0
    1.6422    3.2816   -0.5027 N   0  0  0  0  0  0  0  0  0  0  0  0
   -6.2829   -0.6866    0.0182 N   0  0  0  0  0  0  0  0  0  0  0  0
    2.4099    1.0084    0.1551 C   0  0  1  0  0  0  0  0  0  0  0  0
    3.6458    0.1277    0.2537 C   0  0  0  0  0  0  0  0  0  0  0  0
    2.6111    2.2227   -0.7743 C   0  0  0  0  0  0  0  0  0  0  0  0
    1.2023    0.1780   -0.3073 C   0  0  0  0  0  0  0  0  0  0  0  0
   -1.2961    0.1771    0.0168 C   0  0  0  0  0  0  0  0  0  0  0  0
    3.9435   -0.5253    1.4498 C   0  0  0  0  0  0  0  0  0  0  0  0
    4.4818   -0.0268   -0.8519 C   0  0  0  0  0  0  0  0  0  0  0  0
   -3.6882    0.3250    0.4322 C   0  0  0  0  0  0  0  0  0  0  0  0
   -2.3836    0.8092    0.6222 C   0  0  0  0  0  0  0  0  0  0  0  0
   -3.8869   -0.8106   -0.3801 C   0  0  0  0  0  0  0  0  0  0  0  0
   -1.4966   -0.9442   -0.7848 C   0  0  0  0  0  0  0  0  0  0  0  0
   -2.7854   -1.4386   -0.9846 C   0  0  0  0  0  0  0  0  0  0  0  0
    5.0773   -1.3330    1.5401 C   0  0  0  0  0  0  0  0  0  0  0  0
    5.6155   -0.8343   -0.7618 C   0  0  0  0  0  0  0  0  0  0  0  0
    5.9133   -1.4874    0.4343 C   0  0  0  0  0  0  0  0  0  0  0  0
   -4.7988    0.9366    1.0252 C   0  0  0  0  0  0  0  0  0  0  0  0
   -5.1976   -1.2628   -0.5460 C   0  0  0  0  0  0  0  0  0  0  0  0
   -6.0545    0.3981    0.7889 C   0  0  0  0  0  0  0  0  0  0  0  0
    2.2103    1.3830    1.1696 H   0  0  0  0  0  0  0  0  0  0  0  0
    3.6120    2.6497   -0.6395 H   0  0  0  0  0  0  0  0  0  0  0  0
    2.5096    1.9322   -1.8263 H   0  0  0  0  0  0  0  0  0  0  0  0
    0.0556    1.4905    0.8136 H   0  0  0  0  0  0  0  0  0  0  0  0
    3.2992   -0.4156    2.3180 H   0  0  0  0  0  0  0  0  0  0  0  0
    4.2701    0.4527   -1.8026 H   0  0  0  0  0  0  0  0  0  0  0  0
   -2.2185    1.6854    1.2474 H   0  0  0  0  0  0  0  0  0  0  0  0
   -0.7069   -1.4875   -1.2840 H   0  0  0  0  0  0  0  0  0  0  0  0
   -2.9256   -2.3153   -1.6129 H   0  0  0  0  0  0  0  0  0  0  0  0
    1.8452    4.0855   -1.0953 H   0  0  0  0  0  0  0  0  0  0  0  0
    1.7454    3.6021    0.4593 H   0  0  0  0  0  0  0  0  0  0  0  0
    5.3086   -1.8422    2.4711 H   0  0  0  0  0  0  0  0  0  0  0  0
    6.2644   -0.9582   -1.6239 H   0  0  0  0  0  0  0  0  0  0  0  0
    6.7954   -2.1171    0.5041 H   0  0  0  0  0  0  0  0  0  0  0  0
   -4.6944    1.8127    1.6579 H   0  0  0  0  0  0  0  0  0  0  0  0
   -5.4204   -2.1320   -1.1588 H   0  0  0  0  0  0  0  0  0  0  0  0
   -6.9396    0.8439    1.2311 H   0  0  0  0  0  0  0  0  0  0  0  0
  1  8  2  0  0  0  0
  2  8  1  0  0  0  0
  2  9  1  0  0  0  0
  2 26  1  0  0  0  0
  3  7  1  0  0  0  0
  3 32  1  0  0  0  0
  3 33  1  0  0  0  0
  4 21  2  0  0  0  0
  4 22  1  0  0  0  0
  5  6  1  0  0  0  0
  5  7  1  0  0  0  0
  5  8  1  0  0  0  0
  5 23  1  0  0  0  0
  6 10  2  0  0  0  0
  6 11  1  0  0  0  0
  7 24  1  0  0  0  0
  7 25  1  0  0  0  0
  9 13  2  0  0  0  0
  9 15  1  0  0  0  0
 10 17  1  0  0  0  0
 10 27  1  0  0  0  0
 11 18  2  0  0  0  0
 11 28  1  0  0  0  0
 12 13  1  0  0  0  0
 12 14  2  0  0  0  0
 12 20  1  0  0  0  0
 13 29  1  0  0  0  0
 14 16  1  0  0  0  0
 14 21  1  0  0  0  0
 15 16  2  0  0  0  0
 15 30  1  0  0  0  0
 16 31  1  0  0  0  0
 17 19  2  0  0  0  0
 17 34  1  0  0  0  0
 18 19  1  0  0  0  0
 18 35  1  0  0  0  0
 19 36  1  0  0  0  0
 20 22  2  0  0  0  0
 20 37  1  0  0  0  0
 21 38  1  0  0  0  0
 22 39  1  0  0  0  0
M  END
> <PUBCHEM_COMPOUND_CID>
127031527

> <PUBCHEM_CONFORMER_RMSD>
0.8

> <PUBCHEM_CONFORMER_DIVERSEORDER>
1
15
12
24
17
5
19
8
13
20
21
14
4
18
16
6
22
2
7
11
23
9
3
10

> <PUBCHEM_MMFF94_PARTIAL_CHARGES>
34
1 -0.57
10 -0.15
11 -0.15
13 -0.15
15 -0.15
16 -0.15
17 -0.15
18 -0.15
19 -0.15
2 -0.55
20 -0.15
21 0.16
22 0.16
26 0.37
27 0.15
28 0.15
29 0.15
3 -0.99
30 0.15
31 0.15
32 0.36
33 0.36
34 0.15
35 0.15
36 0.15
37 0.15
38 0.15
39 0.15
4 -0.62
5 0.2
6 -0.14
7 0.27
8 0.57
9 0.12

> <PUBCHEM_EFFECTIVE_ROTOR_COUNT>
5

> <PUBCHEM_PHARMACOPHORE_FEATURES>
8
1 1 acceptor
1 2 donor
1 3 cation
1 3 donor
1 4 acceptor
6 4 12 14 20 21 22 rings
6 6 10 11 17 18 19 rings
6 9 12 13 14 15 16 rings

> <PUBCHEM_HEAVY_ATOM_COUNT>
22

> <PUBCHEM_ATOM_DEF_STEREO_COUNT>
1

> <PUBCHEM_ATOM_UDEF_STEREO_COUNT>
0

> <PUBCHEM_BOND_DEF_STEREO_COUNT>
0

> <PUBCHEM_BOND_UDEF_STEREO_COUNT>
0

> <PUBCHEM_ISOTOPIC_ATOM_COUNT>
0

> <PUBCHEM_COMPONENT_COUNT>
1

> <PUBCHEM_CACTVS_TAUTO_COUNT>
27

> <PUBCHEM_CONFORMER_ID>
079258E700000001

> <PUBCHEM_MMFF94_ENERGY>
66.1035

> <PUBCHEM_FEATURE_SELFOVERLAP>
40.623

> <PUBCHEM_SHAPE_FINGERPRINT>
10 15 16988551417021761954
10366900 7 17312821576122616681
11405975 8 18336547234782148339
11646440 116 16845579725022491795
12166972 35 18273498987245609656
12236239 1 18411702101477761377
12516196 113 18334009485078876656
12553582 1 18261100856108629914
12596602 18 18060694001121733250
12616971 3 18341614849915619749
12633257 1 18410293622582034423
13533116 47 18186801413047486048
13668630 136 17603588508414782202
13911852 28 18116423735813094058
13914758 101 18261103046911183725
14251718 22 11891336447792544699
14251764 18 18343300379781994446
14341114 176 18410577309514310048
14739800 52 17559106803583225328
15131766 46 17828205725173200901
15183329 4 18409729547526458063
15188451 53 17846202393476909335
15348495 7 16845280687576549138
15788980 27 16988841687405373869
17349148 13 18202566193586526215
17844677 252 16732702731321578534
17857418 61 18409444791026077427
1813 80 18260834761420382180
18222031 100 18410575076664117920
19489759 90 17489869324047484403
20028762 73 18272085019672003830
20645477 70 16370721483893810642
21033648 29 16056302934969261706
21267235 1 18342747333791159639
21365058 113 16515694329171649062
22061861 79 16443061677630925554
221357 26 16081084866444945134
2215653 11 16081083788350267539
22950370 63 18334013865876855678
23402539 116 17775563135474413909
23522609 53 18044405801144793228
23557571 272 17131283371571295817
23559900 14 14707215452311924351
2767999 5 11024102149074420938
3004659 81 18271813440584142764
314194 84 17967532350740562450
3411729 13 18058159717541972064
345986 75 18042668526018156464
351380 3 18334010571410320434
3545911 37 17704358744836737287
4073 2 17970634210449556920
4340502 62 13470691451036308189
46194498 28 15574717993598298118
465052 167 18334861615001242782
5104073 3 18200879594795554203
5385378 56 17559689347467204311
54039377 194 17896315810891223266
559249 180 18342454816548502399
5924683 9 16199287936892853935
59755656 215 17489316243702290334
67856867 119 18199747114508813729
8863177 126 17677626417583822355
9971528 1 18411133667241876416
9981440 41 17258489471135176848

> <PUBCHEM_SHAPE_MULTIPOLES>
431.94
15.91
1.9
1.17
4.19
1.39
-0.2
-5.69
-2.93
-1.23
0.39
-0.74
-0.19
-1.73

> <PUBCHEM_SHAPE_SELFOVERLAP>
940.61

> <PUBCHEM_SHAPE_VOLUME>
233

> <PUBCHEM_COORDINATE_TYPE>
2
5
10

$$$$
127027582
  -OEChem-05102415033D

 58 61  0     1  0  0  0  0  0999 V2000
    3.2550   -2.1352   -1.7566 O   0  0  0  0  0  0  0  0  0  0  0  0
   -3.5473   -0.6659    0.1353 O   0  0  0  0  0  0  0  0  0  0  0  0
   -5.8107   -0.9268    0.4956 O   0  0  0  0  0  0  0  0  0  0  0  0
    3.5115   -1.0542    0.3158 N   0  0  0  0  0  0  0  0  0  0  0  0
    2.0257   -5.6616    0.3127 N   0  0  0  0  0  0  0  0  0  0  0  0
    6.6450    4.5455   -0.0093 N   0  0  0  0  0  0  0  0  0  0  0  0
    2.3482   -3.1966    0.2174 C   0  0  1  0  0  0  0  0  0  0  0  0
    0.8615   -2.8870    0.3008 C   0  0  0  0  0  0  0  0  0  0  0  0
    2.6405   -4.5652   -0.4312 C   0  0  0  0  0  0  0  0  0  0  0  0
    3.0809   -2.0796   -0.5424 C   0  0  0  0  0  0  0  0  0  0  0  0
    0.2605   -2.6823    1.5429 C   0  0  0  0  0  0  0  0  0  0  0  0
    0.0994   -2.8064   -0.8647 C   0  0  0  0  0  0  0  0  0  0  0  0
   -1.8649   -2.3165    0.4539 C   0  0  0  0  0  0  0  0  0  0  0  0
   -1.1027   -2.3971    1.6194 C   0  0  0  0  0  0  0  0  0  0  0  0
   -1.2638   -2.5211   -0.7881 C   0  0  0  0  0  0  0  0  0  0  0  0
    4.2041    0.1121   -0.0118 C   0  0  0  0  0  0  0  0  0  0  0  0
   -3.3225   -2.0120    0.5358 C   0  0  0  0  0  0  0  0  0  0  0  0
    4.5540    1.0192    0.9901 C   0  0  0  0  0  0  0  0  0  0  0  0
    5.2500    2.1977    0.6754 C   0  0  0  0  0  0  0  0  0  0  0  0
    4.5439    0.3693   -1.3378 C   0  0  0  0  0  0  0  0  0  0  0  0
    5.5921    2.4546   -0.6684 C   0  0  0  0  0  0  0  0  0  0  0  0
    5.2352    1.5348   -1.6682 C   0  0  0  0  0  0  0  0  0  0  0  0
    5.6151    3.1265    1.6569 C   0  0  0  0  0  0  0  0  0  0  0  0
    6.2839    3.6362   -0.9425 C   0  0  0  0  0  0  0  0  0  0  0  0
   -4.9153    1.1950   -0.2898 C   0  0  0  0  0  0  0  0  0  0  0  0
   -4.8513   -0.2448    0.1613 C   0  0  0  0  0  0  0  0  0  0  0  0
   -6.3120    1.7596   -0.2578 C   0  0  0  0  0  0  0  0  0  0  0  0
    6.3010    4.2663    1.2659 C   0  0  0  0  0  0  0  0  0  0  0  0
   -7.1319    1.6568   -1.3816 C   0  0  0  0  0  0  0  0  0  0  0  0
   -6.7848    2.3853    0.8956 C   0  0  0  0  0  0  0  0  0  0  0  0
   -8.4249    2.1798   -1.3519 C   0  0  0  0  0  0  0  0  0  0  0  0
   -8.0776    2.9082    0.9255 C   0  0  0  0  0  0  0  0  0  0  0  0
   -8.8976    2.8054   -0.1983 C   0  0  0  0  0  0  0  0  0  0  0  0
    2.7627   -3.2324    1.2352 H   0  0  0  0  0  0  0  0  0  0  0  0
    2.2911   -4.6011   -1.4696 H   0  0  0  0  0  0  0  0  0  0  0  0
    3.7246   -4.7269   -0.4610 H   0  0  0  0  0  0  0  0  0  0  0  0
    0.8414   -2.7407    2.4593 H   0  0  0  0  0  0  0  0  0  0  0  0
    0.5478   -2.9603   -1.8421 H   0  0  0  0  0  0  0  0  0  0  0  0
    3.2915   -1.1601    1.3038 H   0  0  0  0  0  0  0  0  0  0  0  0
   -1.5570   -2.2380    2.5937 H   0  0  0  0  0  0  0  0  0  0  0  0
   -1.8479   -2.4596   -1.7026 H   0  0  0  0  0  0  0  0  0  0  0  0
   -3.8782   -2.6943   -0.1200 H   0  0  0  0  0  0  0  0  0  0  0  0
   -3.6920   -2.1568    1.5586 H   0  0  0  0  0  0  0  0  0  0  0  0
    2.2504   -6.5448   -0.1440 H   0  0  0  0  0  0  0  0  0  0  0  0
    1.0107   -5.5781    0.2793 H   0  0  0  0  0  0  0  0  0  0  0  0
    4.2845    0.8108    2.0244 H   0  0  0  0  0  0  0  0  0  0  0  0
    4.3063   -0.2820   -2.1669 H   0  0  0  0  0  0  0  0  0  0  0  0
    5.4930    1.7217   -2.7083 H   0  0  0  0  0  0  0  0  0  0  0  0
    5.3733    2.9712    2.7040 H   0  0  0  0  0  0  0  0  0  0  0  0
    6.5778    3.8947   -1.9562 H   0  0  0  0  0  0  0  0  0  0  0  0
   -4.5162    1.2591   -1.3091 H   0  0  0  0  0  0  0  0  0  0  0  0
   -4.2641    1.7938    0.3583 H   0  0  0  0  0  0  0  0  0  0  0  0
    6.6010    5.0096    1.9975 H   0  0  0  0  0  0  0  0  0  0  0  0
   -6.7757    1.1699   -2.2855 H   0  0  0  0  0  0  0  0  0  0  0  0
   -6.1563    2.4698    1.7782 H   0  0  0  0  0  0  0  0  0  0  0  0
   -9.0635    2.0994   -2.2266 H   0  0  0  0  0  0  0  0  0  0  0  0
   -8.4461    3.3949    1.8238 H   0  0  0  0  0  0  0  0  0  0  0  0
   -9.9043    3.2124   -0.1750 H   0  0  0  0  0  0  0  0  0  0  0  0
  1 10  2  0  0  0  0
  2 17  1  0  0  0  0
  2 26  1  0  0  0  0
  3 26  2  0  0  0  0
  4 10  1  0  0  0  0
  4 16  1  0  0  0  0
  4 39  1  0  0  0  0
  5  9  1  0  0  0  0
  5 44  1  0  0  0  0
  5 45  1  0  0  0  0
  6 24  2  0  0  0  0
  6 28  1  0  0  0  0
  7  8  1  0  0  0  0
  7  9  1  0  0  0  0
  7 10  1  0  0  0  0
  7 34  1  0  0  0  0
  8 11  2  0  0  0  0
  8 12  1  0  0  0  0
  9 35  1  0  0  0  0
  9 36  1  0  0  0  0
 11 14  1  0  0  0  0
 11 37  1  0  0  0  0
 12 15  2  0  0  0  0
 12 38  1  0  0  0  0
 13 14  2  0  0  0  0
 13 15  1  0  0  0  0
 13 17  1  0  0  0  0
 14 40  1  0  0  0  0
 15 41  1  0  0  0  0
 16 18  2  0  0  0  0
 16 20  1  0  0  0  0
 17 42  1  0  0  0  0
 17 43  1  0  0  0  0
 18 19  1  0  0  0  0
 18 46  1  0  0  0  0
 19 21  2  0  0  0  0
 19 23  1  0  0  0  0
 20 22  2  0  0  0  0
 20 47  1  0  0  0  0
 21 22  1  0  0  0  0
 21 24  1  0  0  0  0
 22 48  1  0  0  0  0
 23 28  2  0  0  0  0
 23 49  1  0  0  0  0
 24 50  1  0  0  0  0
 25 26  1  0  0  0  0
 25 27  1  0  0  0  0
 25 51  1  0  0  0  0
 25 52  1  0  0  0  0
 27 29  2  0  0  0  0
 27 30  1  0  0  0  0
 28 53  1  0  0  0  0
 29 31  1  0  0  0  0
 29 54  1  0  0  0  0
 30 32  2  0  0  0  0
 30 55  1  0  0  0  0
 31 33  2  0  0  0  0
 31 56  1  0  0  0  0
 32 33  1  0  0  0  0
 32 57  1  0  0  0  0
 33 58  1  0  0  0  0
M  END
> <PUBCHEM_COMPOUND_CID>
127027582

> <PUBCHEM_CONFORMER_RMSD>
1.2

> <PUBCHEM_CONFORMER_DIVERSEORDER>
1
131
54
58
122
51
107
112
127
96
55
97
134
16
45
89
74
48
70
47
50
60
93
23
61
31
85
101
108
137
120
49
142
11
126
118
102
26
86
145
77
64
100
78
69
105
139
14
6
44
13
28
99
123
7
128
41
56
80
81
82
88
76
119
59
8
42
34
57
104
138
114
40
121
72
38
15
17
46
117
5
143
132
37
75
87
124
148
110
90
21
32
67
141
71
125
103
84
109
25
113
3
36
29
136
98
43
130
35
140
53
27
33
115
30
20
39
52
68
91
129
63
9
22
133
146
147
4
10
95
94
62
144
135
92
83
73
79
12
106
111
2
116
18
66
24
19
65

> <PUBCHEM_MMFF94_PARTIAL_CHARGES>
49
1 -0.57
10 0.57
11 -0.15
12 -0.15
13 -0.14
14 -0.15
15 -0.15
16 0.12
17 0.42
18 -0.15
2 -0.43
20 -0.15
22 -0.15
23 -0.15
24 0.16
25 0.2
26 0.66
27 -0.14
28 0.16
29 -0.15
3 -0.57
30 -0.15
31 -0.15
32 -0.15
33 -0.15
37 0.15
38 0.15
39 0.37
4 -0.55
40 0.15
41 0.15
44 0.36
45 0.36
46 0.15
47 0.15
48 0.15
49 0.15
5 -0.99
50 0.15
53 0.15
54 0.15
55 0.15
56 0.15
57 0.15
58 0.15
6 -0.62
7 0.2
8 -0.14
9 0.27

> <PUBCHEM_EFFECTIVE_ROTOR_COUNT>
10

> <PUBCHEM_PHARMACOPHORE_FEATURES>
10
1 1 acceptor
1 3 acceptor
1 4 donor
1 5 cation
1 5 donor
1 6 acceptor
6 16 18 19 20 21 22 rings
6 27 29 30 31 32 33 rings
6 6 19 21 23 24 28 rings
6 8 11 12 13 14 15 rings

> <PUBCHEM_HEAVY_ATOM_COUNT>
33

> <PUBCHEM_ATOM_DEF_STEREO_COUNT>
0

> <PUBCHEM_ATOM_UDEF_STEREO_COUNT>
1

> <PUBCHEM_BOND_DEF_STEREO_COUNT>
0

> <PUBCHEM_BOND_UDEF_STEREO_COUNT>
0

> <PUBCHEM_ISOTOPIC_ATOM_COUNT>
0

> <PUBCHEM_COMPONENT_COUNT>
1

> <PUBCHEM_CACTVS_TAUTO_COUNT>
54

> <PUBCHEM_CONFORMER_ID>
0792497E00000001

> <PUBCHEM_MMFF94_ENERGY>
90.0366

> <PUBCHEM_FEATURE_SELFOVERLAP>
50.774

> <PUBCHEM_SHAPE_FINGERPRINT>
10533779 1 18337941380908902321
10556698 54 17060052636110654848
10673678 19 18342741784788780919
10675989 125 18338518543229736082
10864689 126 18270124634191107504
10908659 184 17603578647212549732
11135609 127 18339635655750126383
11386260 185 18054227631020065207
11578821 258 18050848811674647205
12013929 29 18127135165591153137
12975358 362 18190480409330915633
1361 87 13110672917409714117
13782708 43 10519978258736701515
13944108 23 18411702050276205800
15198563 99 17551228897022399879
15513586 35 16304863232771133350
15530121 191 17971754377509775781
15803439 3 16916789629606996759
16096371 109 17605547752721423971
17899979 129 18341052930132168927
19053607 189 18115600369012175452
19303781 99 9150901512119559176
19304671 126 18060148630369487188
19309040 13 18341890805374604719
20691028 202 18336827610410885060
21033648 29 17822302262501729947
21647283 7 18259984894165273769
23191077 185 18340196500748144587
23516275 100 18335414677782700757
23522609 53 17171802790171881332
23569914 152 17844273778148437364
23569914 2 17244103143670436005
23569943 247 9367341553754871605
2748736 6 18337664304041109853
2838139 119 18341328972191820438
3504750 166 7925913686986987303
3525247 18 18268145542461530817
3534868 343 17486495889077085275
3862424 121 12822726236944015397
3918712 181 18411415124633023481
393628 194 18191021403158104749
406291 66 9583524217802334797
4112364 45 17967802821815563787
44426701 194 18265874965840456421
50742298 180 16805898329049593893
5219985 13 18339080518453018878
59521099 67 18051407362684245402
6712543 237 14417850337538346577
6898599 12 18271803549818331639
9849439 229 18409163350804802370

> <PUBCHEM_SHAPE_MULTIPOLES>
646.57
25.51
7.44
1.47
44.53
2.67
-0.04
-44.39
-2.44
-10.18
0.97
-0.81
-0.41
1.89

> <PUBCHEM_SHAPE_SELFOVERLAP>
1404.329

> <PUBCHEM_SHAPE_VOLUME>
349.7

> <PUBCHEM_COORDINATE_TYPE>
2
5
10

$$$$
123155509
  -OEChem-05102415033D

 43 45  0     1  0  0  0  0  0999 V2000
    0.7542    1.3468    1.6023 O   0  0  0  0  0  0  0  0  0  0  0  0
    4.6263   -2.2223    1.2975 O   0  0  0  0  0  0  0  0  0  0  0  0
   -0.3199    0.8822   -0.4373 N   0  0  0  0  0  0  0  0  0  0  0  0
    4.0101    3.0522   -0.5874 N   0  0  0  0  0  0  0  0  0  0  0  0
   -6.4755   -0.8569    0.1692 N   0  0  0  0  0  0  0  0  0  0  0  0
    2.0233    1.5618   -0.4444 C   0  0  2  0  0  0  0  0  0  0  0  0
    2.8214    0.2856   -0.6615 C   0  0  0  0  0  0  0  0  0  0  0  0
    2.8529    2.6785    0.2218 C   0  0  0  0  0  0  0  0  0  0  0  0
    0.7596    1.2623    0.3773 C   0  0  0  0  0  0  0  0  0  0  0  0
    3.3638   -0.3919    0.4305 C   0  0  0  0  0  0  0  0  0  0  0  0
    3.0117   -0.2072   -1.9526 C   0  0  0  0  0  0  0  0  0  0  0  0
   -1.6154    0.5380   -0.0490 C   0  0  0  0  0  0  0  0  0  0  0  0
   -3.8672   -0.1686   -0.6373 C   0  0  0  0  0  0  0  0  0  0  0  0
    4.0964   -1.5622    0.2317 C   0  0  0  0  0  0  0  0  0  0  0  0
   -2.5593    0.1789   -1.0128 C   0  0  0  0  0  0  0  0  0  0  0  0
   -4.2165   -0.1507    0.7289 C   0  0  0  0  0  0  0  0  0  0  0  0
    3.7444   -1.3773   -2.1516 C   0  0  0  0  0  0  0  0  0  0  0  0
   -1.9643    0.5545    1.2994 C   0  0  0  0  0  0  0  0  0  0  0  0
    4.2866   -2.0550   -1.0595 C   0  0  0  0  0  0  0  0  0  0  0  0
   -3.2586    0.2120    1.6902 C   0  0  0  0  0  0  0  0  0  0  0  0
   -4.8359   -0.5333   -1.5795 C   0  0  0  0  0  0  0  0  0  0  0  0
   -5.5257   -0.5023    1.0639 C   0  0  0  0  0  0  0  0  0  0  0  0
   -6.1051   -0.8630   -1.1290 C   0  0  0  0  0  0  0  0  0  0  0  0
    4.3928   -1.6624    2.5891 C   0  0  0  0  0  0  0  0  0  0  0  0
    1.6948    1.9475   -1.4204 H   0  0  0  0  0  0  0  0  0  0  0  0
    2.2213    3.5633    0.3675 H   0  0  0  0  0  0  0  0  0  0  0  0
    3.2029    2.3790    1.2161 H   0  0  0  0  0  0  0  0  0  0  0  0
    3.1879    0.0268    1.4148 H   0  0  0  0  0  0  0  0  0  0  0  0
   -0.1471    0.8436   -1.4394 H   0  0  0  0  0  0  0  0  0  0  0  0
    2.5951    0.3094   -2.8131 H   0  0  0  0  0  0  0  0  0  0  0  0
   -2.2787    0.1685   -2.0649 H   0  0  0  0  0  0  0  0  0  0  0  0
   -1.2913    0.8227    2.1014 H   0  0  0  0  0  0  0  0  0  0  0  0
    3.8926   -1.7610   -3.1567 H   0  0  0  0  0  0  0  0  0  0  0  0
    4.4866    3.8404   -0.1512 H   0  0  0  0  0  0  0  0  0  0  0  0
    3.6977    3.3767   -1.5016 H   0  0  0  0  0  0  0  0  0  0  0  0
    4.8565   -2.9659   -1.2207 H   0  0  0  0  0  0  0  0  0  0  0  0
   -3.5158    0.2300    2.7470 H   0  0  0  0  0  0  0  0  0  0  0  0
   -4.6129   -0.5615   -2.6417 H   0  0  0  0  0  0  0  0  0  0  0  0
   -5.8602   -0.5092    2.0977 H   0  0  0  0  0  0  0  0  0  0  0  0
   -6.8830   -1.1506   -1.8288 H   0  0  0  0  0  0  0  0  0  0  0  0
    4.8510   -0.6724    2.6880 H   0  0  0  0  0  0  0  0  0  0  0  0
    3.3261   -1.6546    2.8380 H   0  0  0  0  0  0  0  0  0  0  0  0
    4.8850   -2.3153    3.3174 H   0  0  0  0  0  0  0  0  0  0  0  0
  1  9  2  0  0  0  0
  2 14  1  0  0  0  0
  2 24  1  0  0  0  0
  3  9  1  0  0  0  0
  3 12  1  0  0  0  0
  3 29  1  0  0  0  0
  4  8  1  0  0  0  0
  4 34  1  0  0  0  0
  4 35  1  0  0  0  0
  5 22  2  0  0  0  0
  5 23  1  0  0  0  0
  6  7  1  0  0  0  0
  6  8  1  0  0  0  0
  6  9  1  0  0  0  0
  6 25  1  0  0  0  0
  7 10  2  0  0  0  0
  7 11  1  0  0  0  0
  8 26  1  0  0  0  0
  8 27  1  0  0  0  0
 10 14  1  0  0  0  0
 10 28  1  0  0  0  0
 11 17  2  0  0  0  0
 11 30  1  0  0  0  0
 12 15  2  0  0  0  0
 12 18  1  0  0  0  0
 13 15  1  0  0  0  0
 13 16  2  0  0  0  0
 13 21  1  0  0  0  0
 14 19  2  0  0  0  0
 15 31  1  0  0  0  0
 16 20  1  0  0  0  0
 16 22  1  0  0  0  0
 17 19  1  0  0  0  0
 17 33  1  0  0  0  0
 18 20  2  0  0  0  0
 18 32  1  0  0  0  0
 19 36  1  0  0  0  0
 20 37  1  0  0  0  0
 21 23  2  0  0  0  0
 21 38  1  0  0  0  0
 22 39  1  0  0  0  0
 23 40  1  0  0  0  0
 24 41  1  0  0  0  0
 24 42  1  0  0  0  0
 24 43  1  0  0  0  0
M  END
> <PUBCHEM_COMPOUND_CID>
123155509

> <PUBCHEM_CONFORMER_RMSD>
0.8

> <PUBCHEM_CONFORMER_DIVERSEORDER>
1
154
74
104
30
131
109
32
145
102
64
91
162
49
33
66
61
83
134
88
73
151
158
105
79
123
152
138
56
13
53
43
155
159
87
46
63
57
36
133
115
174
29
164
51
116
173
125
11
31
81
100
120
76
139
167
135
166
82
161
117
22
129
122
163
121
20
107
45
10
96
106
136
68
21
97
168
92
108
78
14
84
103
6
124
143
99
55
72
141
9
140
17
35
144
5
75
113
98
130
165
71
24
149
150
34
8
4
48
69
137
101
77
93
80
67
60
114
59
127
86
15
160
171
39
70
50
65
58
85
95
16
157
111
89
12
19
132
119
170
52
156
90
23
110
148
153
126
112
27
147
54
62
172
44
2
94
41
146
142
169
47
40
25
38
7
42
3
118
28
128
37
26
18

> <PUBCHEM_MMFF94_PARTIAL_CHARGES>
35
1 -0.57
10 -0.15
11 -0.15
12 0.12
14 0.08
15 -0.15
17 -0.15
18 -0.15
19 -0.15
2 -0.36
20 -0.15
21 -0.15
22 0.16
23 0.16
24 0.28
28 0.15
29 0.37
3 -0.55
30 0.15
31 0.15
32 0.15
33 0.15
34 0.36
35 0.36
36 0.15
37 0.15
38 0.15
39 0.15
4 -0.99
40 0.15
5 -0.62
6 0.2
7 -0.14
8 0.27
9 0.57

> <PUBCHEM_EFFECTIVE_ROTOR_COUNT>
6

> <PUBCHEM_PHARMACOPHORE_FEATURES>
9
1 1 acceptor
1 2 acceptor
1 3 donor
1 4 cation
1 4 donor
1 5 acceptor
6 12 13 15 16 18 20 rings
6 5 13 16 21 22 23 rings
6 7 10 11 14 17 19 rings

> <PUBCHEM_HEAVY_ATOM_COUNT>
24

> <PUBCHEM_ATOM_DEF_STEREO_COUNT>
0

> <PUBCHEM_ATOM_UDEF_STEREO_COUNT>
1

> <PUBCHEM_BOND_DEF_STEREO_COUNT>
0

> <PUBCHEM_BOND_UDEF_STEREO_COUNT>
0

> <PUBCHEM_ISOTOPIC_ATOM_COUNT>
0

> <PUBCHEM_COMPONENT_COUNT>
1

> <PUBCHEM_CACTVS_TAUTO_COUNT>
34

> <PUBCHEM_CONFORMER_ID>
0757343500000001

> <PUBCHEM_MMFF94_ENERGY>
79.361

> <PUBCHEM_FEATURE_SELFOVERLAP>
45.698

> <PUBCHEM_SHAPE_FINGERPRINT>
10378564 45 15791726373798487998
10498660 4 13045955611116176334
10554248 39 12613569391641022491
11720765 8 15502649353125770486
12107183 9 17413899560147806721
12596602 18 15267338518257351255
12616971 3 18202567285215029719
12633257 1 18273497883618226359
12892183 10 15913043175508488154
13533116 47 18131356340647091817
13782708 43 18335703905907979611
13914758 101 18059856122502364485
13955234 65 18337949125087923528
1420 369 17917715673392637287
14251740 57 17275112695551202230
14341114 328 14045158776300906798
14528608 73 13190343487119374615
14848178 5 18131346393397722783
14863182 85 17346598582545285622
14910302 57 16950557805360872343
15183329 4 15719390581780534083
15188451 53 17489581226073123175
15250474 111 17417520441053862687
17349148 13 18202292394164935367
17844677 252 18334014995480135373
17857418 61 17632294588610825703
1813 80 18271529702122737220
18222031 100 18272091552590768278
18681886 176 16056047990185593864
19377110 9 17274819190075585433
1979834 28 15482400797963513325
20369508 70 18261109664980928994
20567600 234 12391503196836660363
20567600 9 11819272213767066198
20645477 70 18410295830385102460
21049683 118 17554026021208743584
21315764 119 16443338716228237639
21344244 78 17917986174712407880
21792934 111 16630532817931859587
22061861 79 18113336423278915895
2303208 19 17749116621241531867
23366157 5 16770964796199014505
23559900 14 16298379137164880315
3004659 81 18202570587396313357
312423 11 18341909471170616569
34797466 226 16298677174105125039
5104073 3 15841274856925999843
513532 50 14923945669962829118
59682541 52 17531232942974026199
6025842 7 18339927129468627284
6669772 16 17968934318365570802
7970288 3 18198351654260549134
8988823 20 18334855039274242412
960060 61 17240490199368018294
9841814 1 18410292498002196600
9862260 156 7997700835323897704

> <PUBCHEM_SHAPE_MULTIPOLES>
467.23
14.56
2.27
2.01
15.34
1.04
-0.65
-7.45
-0.3
-4.4
0.23
-1.6
-0.81
-1.38

> <PUBCHEM_SHAPE_SELFOVERLAP>
1012.806

> <PUBCHEM_SHAPE_VOLUME>
253.8

> <PUBCHEM_COORDINATE_TYPE>
2
5
10

$$$$
127028821
  -OEChem-05102415033D

 42 44  0     1  0  0  0  0  0999 V2000
   -3.3976    3.2195   -0.5715 F   0  0  0  0  0  0  0  0  0  0  0  0
   -5.1234    2.1373   -1.3158 F   0  0  0  0  0  0  0  0  0  0  0  0
   -5.1425    2.9554    0.6987 F   0  0  0  0  0  0  0  0  0  0  0  0
    0.1992   -2.7731    0.5741 O   0  0  0  0  0  0  0  0  0  0  0  0
    0.7160   -0.8099   -0.6124 N   0  0  0  0  0  0  0  0  0  0  0  0
   -3.3664   -3.1549   -1.7594 N   0  0  0  0  0  0  0  0  0  0  0  0
    6.7048    1.3242    0.3165 N   0  0  0  0  0  0  0  0  0  0  0  0
   -1.5086   -1.7887   -0.8260 C   0  0  2  0  0  0  0  0  0  0  0  0
   -2.4195   -0.9338    0.0414 C   0  0  0  0  0  0  0  0  0  0  0  0
   -2.0760   -3.2009   -1.0764 C   0  0  0  0  0  0  0  0  0  0  0  0
   -0.1071   -1.8711   -0.2006 C   0  0  0  0  0  0  0  0  0  0  0  0
   -2.9480    0.2549   -0.4622 C   0  0  0  0  0  0  0  0  0  0  0  0
   -2.7263   -1.3382    1.3407 C   0  0  0  0  0  0  0  0  0  0  0  0
   -3.7835    1.0390    0.3334 C   0  0  0  0  0  0  0  0  0  0  0  0
    2.0407   -0.5555   -0.2547 C   0  0  0  0  0  0  0  0  0  0  0  0
   -3.5615   -0.5540    2.1364 C   0  0  0  0  0  0  0  0  0  0  0  0
   -4.0903    0.6345    1.6327 C   0  0  0  0  0  0  0  0  0  0  0  0
    4.0314    0.8325   -0.4172 C   0  0  0  0  0  0  0  0  0  0  0  0
    2.6980    0.5643   -0.7672 C   0  0  0  0  0  0  0  0  0  0  0  0
    4.7002   -0.0454    0.4607 C   0  0  0  0  0  0  0  0  0  0  0  0
    2.7047   -1.4203    0.6122 C   0  0  0  0  0  0  0  0  0  0  0  0
    4.0290   -1.1691    0.9706 C   0  0  0  0  0  0  0  0  0  0  0  0
   -4.3484    2.3103   -0.2046 C   0  0  0  0  0  0  0  0  0  0  0  0
    4.7176    1.9468   -0.9140 C   0  0  0  0  0  0  0  0  0  0  0  0
    6.0248    0.2538    0.7858 C   0  0  0  0  0  0  0  0  0  0  0  0
    6.0328    2.1424   -0.5211 C   0  0  0  0  0  0  0  0  0  0  0  0
   -1.3997   -1.3098   -1.8099 H   0  0  0  0  0  0  0  0  0  0  0  0
   -1.3698   -3.7740   -1.6894 H   0  0  0  0  0  0  0  0  0  0  0  0
   -2.1958   -3.7549   -0.1385 H   0  0  0  0  0  0  0  0  0  0  0  0
   -2.7118    0.5754   -1.4740 H   0  0  0  0  0  0  0  0  0  0  0  0
   -2.3240   -2.2590    1.7535 H   0  0  0  0  0  0  0  0  0  0  0  0
    0.3044   -0.1300   -1.2481 H   0  0  0  0  0  0  0  0  0  0  0  0
   -3.7998   -0.8687    3.1482 H   0  0  0  0  0  0  0  0  0  0  0  0
   -4.7386    1.2306    2.2688 H   0  0  0  0  0  0  0  0  0  0  0  0
    2.1719    1.2355   -1.4444 H   0  0  0  0  0  0  0  0  0  0  0  0
   -3.6699   -4.1043   -1.9717 H   0  0  0  0  0  0  0  0  0  0  0  0
   -3.2623   -2.6804   -2.6553 H   0  0  0  0  0  0  0  0  0  0  0  0
    2.2647   -2.3063    1.0472 H   0  0  0  0  0  0  0  0  0  0  0  0
    4.5341   -1.8539    1.6482 H   0  0  0  0  0  0  0  0  0  0  0  0
    4.2436    2.6499   -1.5921 H   0  0  0  0  0  0  0  0  0  0  0  0
    6.5975   -0.3809    1.4564 H   0  0  0  0  0  0  0  0  0  0  0  0
    6.5979    2.9944   -0.8849 H   0  0  0  0  0  0  0  0  0  0  0  0
  1 23  1  0  0  0  0
  2 23  1  0  0  0  0
  3 23  1  0  0  0  0
  4 11  2  0  0  0  0
  5 11  1  0  0  0  0
  5 15  1  0  0  0  0
  5 32  1  0  0  0  0
  6 10  1  0  0  0  0
  6 36  1  0  0  0  0
  6 37  1  0  0  0  0
  7 25  2  0  0  0  0
  7 26  1  0  0  0  0
  8  9  1  0  0  0  0
  8 10  1  0  0  0  0
  8 11  1  0  0  0  0
  8 27  1  0  0  0  0
  9 12  2  0  0  0  0
  9 13  1  0  0  0  0
 10 28  1  0  0  0  0
 10 29  1  0  0  0  0
 12 14  1  0  0  0  0
 12 30  1  0  0  0  0
 13 16  2  0  0  0  0
 13 31  1  0  0  0  0
 14 17  2  0  0  0  0
 14 23  1  0  0  0  0
 15 19  2  0  0  0  0
 15 21  1  0  0  0  0
 16 17  1  0  0  0  0
 16 33  1  0  0  0  0
 17 34  1  0  0  0  0
 18 19  1  0  0  0  0
 18 20  2  0  0  0  0
 18 24  1  0  0  0  0
 19 35  1  0  0  0  0
 20 22  1  0  0  0  0
 20 25  1  0  0  0  0
 21 22  2  0  0  0  0
 21 38  1  0  0  0  0
 22 39  1  0  0  0  0
 24 26  2  0  0  0  0
 24 40  1  0  0  0  0
 25 41  1  0  0  0  0
 26 42  1  0  0  0  0
M  END
> <PUBCHEM_COMPOUND_CID>
127028821

> <PUBCHEM_CONFORMER_RMSD>
0.8

> <PUBCHEM_CONFORMER_DIVERSEORDER>
1
126
21
69
6
114
95
57
55
124
59
110
27
93
86
80
34
35
11
72
98
91
31
47
32
76
112
97
49
122
103
58
19
36
64
17
68
4
33
15
67
43
81
70
73
111
75
10
28
89
39
12
48
101
83
82
37
8
66
63
60
107
85
104
5
113
18
29
52
7
115
23
71
46
30
62
26
40
79
41
109
118
108
53
56
38
77
117
125
94
9
120
92
87
20
51
2
96
100
121
45
123
16
54
105
102
50
13
61
90
42
116
84
99
119
78
65
88
106
44
14
24
74
3
25
22

> <PUBCHEM_MMFF94_PARTIAL_CHARGES>
37
1 -0.34
10 0.27
11 0.57
12 -0.15
13 -0.15
14 -0.14
15 0.12
16 -0.15
17 -0.15
19 -0.15
2 -0.34
21 -0.15
22 -0.15
23 1.16
24 -0.15
25 0.16
26 0.16
3 -0.34
30 0.15
31 0.15
32 0.37
33 0.15
34 0.15
35 0.15
36 0.36
37 0.36
38 0.15
39 0.15
4 -0.57
40 0.15
41 0.15
42 0.15
5 -0.55
6 -0.99
7 -0.62
8 0.2
9 -0.14

> <PUBCHEM_EFFECTIVE_ROTOR_COUNT>
6

> <PUBCHEM_PHARMACOPHORE_FEATURES>
8
1 4 acceptor
1 5 donor
1 6 cation
1 6 donor
1 7 acceptor
6 15 18 19 20 21 22 rings
6 7 18 20 24 25 26 rings
6 9 12 13 14 16 17 rings

> <PUBCHEM_HEAVY_ATOM_COUNT>
26

> <PUBCHEM_ATOM_DEF_STEREO_COUNT>
0

> <PUBCHEM_ATOM_UDEF_STEREO_COUNT>
1

> <PUBCHEM_BOND_DEF_STEREO_COUNT>
0

> <PUBCHEM_BOND_UDEF_STEREO_COUNT>
0

> <PUBCHEM_ISOTOPIC_ATOM_COUNT>
0

> <PUBCHEM_COMPONENT_COUNT>
1

> <PUBCHEM_CACTVS_TAUTO_COUNT>
34

> <PUBCHEM_CONFORMER_ID>
07924E5500000001

> <PUBCHEM_MMFF94_ENERGY>
67.9542

> <PUBCHEM_FEATURE_SELFOVERLAP>
40.623

> <PUBCHEM_SHAPE_FINGERPRINT>
105312 117 17775574134331797111
11101153 10 18051691349847019972
11370993 144 17676205736844093394
11552529 35 17242745431045567010
12107183 9 18192701264310992986
12422481 6 17749106669501886596
12596602 18 17167865304722660648
12760667 363 8646764487592331089
12788726 201 18196357324793457783
12892183 10 17821740432927975187
13785724 45 17831292797457890810
14251764 75 18127421055477668281
14294032 229 18202288013778464731
14556957 393 18196082477008353479
14790565 3 18118128189769377684
14848178 5 9222958028378716384
14950920 106 16950851409119479624
15188451 53 15647629972468358563
15289351 153 17978224191854194996
15513586 35 17904783402268710129
16120349 189 18262232227561526957
18927931 339 12035722128487161226
193927 3 11097855177199467810
20775438 99 8642203622845198089
21302155 148 18335991916996551228
21307412 95 10951465074514293369
21401589 2 18335710378101538873
21756936 100 18262241126802296626
21864079 5 18334577957922566046
2838139 119 18191017898960039245
312425 54 16226048872970667248
32027 91 17701557121186598630
3388396 114 17476354380084843029
3459 39 18342166778840717072
38570 142 16735550579103694228
5104073 3 17894905253019152432
5219985 9 17769652328747855319
5372103 7 17678719165340143413
57724786 102 18126013667318322747
6034566 193 18201726094506217025
6086070 43 17274814779914455354
6327066 14 18339074892072098741
636775 72 18124031502259800600
6677587 24 17108143995690018293
7226269 152 18202006547196568760
7808743 9 18413106164730513384
90127 26 18334869294260349850
9981440 41 18334580088648247587

> <PUBCHEM_SHAPE_MULTIPOLES>
492.43
14.96
3.5
1.42
15.45
0.32
0.29
11.53
1.49
-4.65
-1.26
-1.5
-0.41
-1.31

> <PUBCHEM_SHAPE_SELFOVERLAP>
1074.559

> <PUBCHEM_SHAPE_VOLUME>
267.7

> <PUBCHEM_COORDINATE_TYPE>
2
5
10

$$$$
127028822
  -OEChem-05102415033D

 42 44  0     1  0  0  0  0  0999 V2000
   -6.3215    1.6336   -0.7235 F   0  0  0  0  0  0  0  0  0  0  0  0
   -4.7242    3.0438   -1.1277 F   0  0  0  0  0  0  0  0  0  0  0  0
   -5.4230    2.7520    0.9104 F   0  0  0  0  0  0  0  0  0  0  0  0
    0.2304   -2.2227   -1.3826 O   0  0  0  0  0  0  0  0  0  0  0  0
    0.9861   -1.0386    0.5031 N   0  0  0  0  0  0  0  0  0  0  0  0
   -2.9056   -3.8753    0.9972 N   0  0  0  0  0  0  0  0  0  0  0  0
    6.8066    1.5898   -0.2011 N   0  0  0  0  0  0  0  0  0  0  0  0
   -1.2030   -2.1144    0.5615 C   0  0  1  0  0  0  0  0  0  0  0  0
   -2.2321   -1.0147    0.3505 C   0  0  0  0  0  0  0  0  0  0  0  0
   -1.7378   -3.5145    0.1973 C   0  0  0  0  0  0  0  0  0  0  0  0
    0.0731   -1.8072   -0.2380 C   0  0  0  0  0  0  0  0  0  0  0  0
   -2.6509   -0.2358    1.4293 C   0  0  0  0  0  0  0  0  0  0  0  0
   -2.7569   -0.7845   -0.9212 C   0  0  0  0  0  0  0  0  0  0  0  0
    2.2412   -0.5721    0.1100 C   0  0  0  0  0  0  0  0  0  0  0  0
   -4.1190    1.0034   -0.0355 C   0  0  0  0  0  0  0  0  0  0  0  0
   -3.5943    0.7733    1.2364 C   0  0  0  0  0  0  0  0  0  0  0  0
   -3.7003    0.2245   -1.1142 C   0  0  0  0  0  0  0  0  0  0  0  0
    4.2785    0.6571    0.6148 C   0  0  0  0  0  0  0  0  0  0  0  0
    3.0140    0.1797    0.9967 C   0  0  0  0  0  0  0  0  0  0  0  0
    4.7594    0.3668   -0.6788 C   0  0  0  0  0  0  0  0  0  0  0  0
    2.7198   -0.8567   -1.1668 C   0  0  0  0  0  0  0  0  0  0  0  0
    3.9733   -0.3908   -1.5627 C   0  0  0  0  0  0  0  0  0  0  0  0
   -5.1253    2.0843   -0.2422 C   0  0  0  0  0  0  0  0  0  0  0  0
    5.0771    1.4130    1.4807 C   0  0  0  0  0  0  0  0  0  0  0  0
    6.0205    0.8579   -1.0226 C   0  0  0  0  0  0  0  0  0  0  0  0
    6.3138    1.8479    1.0290 C   0  0  0  0  0  0  0  0  0  0  0  0
   -0.9279   -2.1462    1.6256 H   0  0  0  0  0  0  0  0  0  0  0  0
   -2.0010   -3.5808   -0.8648 H   0  0  0  0  0  0  0  0  0  0  0  0
   -0.9511   -4.2584    0.3709 H   0  0  0  0  0  0  0  0  0  0  0  0
   -2.2505   -0.4029    2.4256 H   0  0  0  0  0  0  0  0  0  0  0  0
   -2.4433   -1.3781   -1.7752 H   0  0  0  0  0  0  0  0  0  0  0  0
    0.7066   -0.7769    1.4460 H   0  0  0  0  0  0  0  0  0  0  0  0
   -3.9066    1.3691    2.0895 H   0  0  0  0  0  0  0  0  0  0  0  0
   -4.1029    0.3971   -2.1088 H   0  0  0  0  0  0  0  0  0  0  0  0
    2.6327    0.3979    1.9931 H   0  0  0  0  0  0  0  0  0  0  0  0
   -3.2198   -4.8076    0.7310 H   0  0  0  0  0  0  0  0  0  0  0  0
   -3.6792   -3.2466    0.7859 H   0  0  0  0  0  0  0  0  0  0  0  0
    2.1802   -1.4289   -1.9080 H   0  0  0  0  0  0  0  0  0  0  0  0
    4.3329   -0.6210   -2.5631 H   0  0  0  0  0  0  0  0  0  0  0  0
    4.7486    1.6608    2.4854 H   0  0  0  0  0  0  0  0  0  0  0  0
    6.4501    0.6705   -2.0029 H   0  0  0  0  0  0  0  0  0  0  0  0
    6.9614    2.4363    1.6708 H   0  0  0  0  0  0  0  0  0  0  0  0
  1 23  1  0  0  0  0
  2 23  1  0  0  0  0
  3 23  1  0  0  0  0
  4 11  2  0  0  0  0
  5 11  1  0  0  0  0
  5 14  1  0  0  0  0
  5 32  1  0  0  0  0
  6 10  1  0  0  0  0
  6 36  1  0  0  0  0
  6 37  1  0  0  0  0
  7 25  2  0  0  0  0
  7 26  1  0  0  0  0
  8  9  1  0  0  0  0
  8 10  1  0  0  0  0
  8 11  1  0  0  0  0
  8 27  1  0  0  0  0
  9 12  2  0  0  0  0
  9 13  1  0  0  0  0
 10 28  1  0  0  0  0
 10 29  1  0  0  0  0
 12 16  1  0  0  0  0
 12 30  1  0  0  0  0
 13 17  2  0  0  0  0
 13 31  1  0  0  0  0
 14 19  2  0  0  0  0
 14 21  1  0  0  0  0
 15 16  2  0  0  0  0
 15 17  1  0  0  0  0
 15 23  1  0  0  0  0
 16 33  1  0  0  0  0
 17 34  1  0  0  0  0
 18 19  1  0  0  0  0
 18 20  2  0  0  0  0
 18 24  1  0  0  0  0
 19 35  1  0  0  0  0
 20 22  1  0  0  0  0
 20 25  1  0  0  0  0
 21 22  2  0  0  0  0
 21 38  1  0  0  0  0
 22 39  1  0  0  0  0
 24 26  2  0  0  0  0
 24 40  1  0  0  0  0
 25 41  1  0  0  0  0
 26 42  1  0  0  0  0
M  END
> <PUBCHEM_COMPOUND_CID>
127028822

> <PUBCHEM_CONFORMER_RMSD>
0.8

> <PUBCHEM_CONFORMER_DIVERSEORDER>
1
26
33
23
16
40
49
51
36
31
39
21
42
11
28
12
4
53
41
17
38
47
3
37
29
27
44
48
24
22
6
5
9
8
20
19
30
7
18
52
13
34
43
50
32
2
45
14
35
46
25
10
15

> <PUBCHEM_MMFF94_PARTIAL_CHARGES>
37
1 -0.34
10 0.27
11 0.57
12 -0.15
13 -0.15
14 0.12
15 -0.14
16 -0.15
17 -0.15
19 -0.15
2 -0.34
21 -0.15
22 -0.15
23 1.16
24 -0.15
25 0.16
26 0.16
3 -0.34
30 0.15
31 0.15
32 0.37
33 0.15
34 0.15
35 0.15
36 0.36
37 0.36
38 0.15
39 0.15
4 -0.57
40 0.15
41 0.15
42 0.15
5 -0.55
6 -0.99
7 -0.62
8 0.2
9 -0.14

> <PUBCHEM_EFFECTIVE_ROTOR_COUNT>
6

> <PUBCHEM_PHARMACOPHORE_FEATURES>
8
1 4 acceptor
1 5 donor
1 6 cation
1 6 donor
1 7 acceptor
6 14 18 19 20 21 22 rings
6 7 18 20 24 25 26 rings
6 9 12 13 15 16 17 rings

> <PUBCHEM_HEAVY_ATOM_COUNT>
26

> <PUBCHEM_ATOM_DEF_STEREO_COUNT>
0

> <PUBCHEM_ATOM_UDEF_STEREO_COUNT>
1

> <PUBCHEM_BOND_DEF_STEREO_COUNT>
0

> <PUBCHEM_BOND_UDEF_STEREO_COUNT>
0

> <PUBCHEM_ISOTOPIC_ATOM_COUNT>
0

> <PUBCHEM_COMPONENT_COUNT>
1

> <PUBCHEM_CACTVS_TAUTO_COUNT>
27

> <PUBCHEM_CONFORMER_ID>
07924E5600000001

> <PUBCHEM_MMFF94_ENERGY>
68.2893

> <PUBCHEM_FEATURE_SELFOVERLAP>
40.623

> <PUBCHEM_SHAPE_FINGERPRINT>
10319688 45 17762901360921887586
10498660 4 18273215283175071192
105312 117 18410575089079645023
10928967 22 11746932097002135912
11552529 35 15431461639756135546
12107183 9 18116136793575072602
12403259 118 17677062320905397533
12403259 415 18342188751429419431
12633257 1 15864080866198526159
13103583 49 15719400546246780344
13402501 40 18343862221170279560
13540713 4 18269295528512827111
14068700 675 17681552868180909767
14123256 34 10159691421785711005
14216079 64 8502650407613094113
14251764 30 8862937286189827172
14251764 38 18196085771153712464
14341114 328 16298397846000320693
14931854 50 17703784770045736945
14950920 106 15575008298341940717
15183329 4 16845575292331255540
15238133 3 17749115508739701868
15513586 35 16880216651699892301
16120349 189 18114736054125496861
17138139 8 13038892314334249892
17780758 139 12757142476774789959
17844677 252 18122066661788990562
18608769 82 18342740775750898483
21033648 144 18272941513375171998
21033648 29 18261967266559612071
21054139 6 12031799063337957428
21279426 13 18130802157291997942
21401589 2 18408327662080432337
23569914 152 16840246887706816148
270888 7 18337670815581016541
2748736 6 18336539430695267821
283562 15 18190457345615187475
2838139 119 18340759347668901173
3004659 81 12391505382410537665
312425 54 12252173031250655493
3459 39 18187631497272065036
3862424 121 14331402408394243381
4144715 1 18118972632005628698
474113 269 12396880934506100705
508706 21 18340197604553921297
5104073 3 18040711472530224514
56633871 153 11314609618366390761
57724786 102 18187363173616732582
59682541 35 18335713750109419025
59682541 52 16415197815299819956
5969126 39 18126561460934348599
6327066 14 18335698321774741933
636775 8 11170178819673287680
7288768 16 18260551095899807947
7808743 9 18334294279347830257
9849439 229 18263356989433904213
9981440 41 18409167727229336691

> <PUBCHEM_SHAPE_MULTIPOLES>
492.43
16.26
3.34
1.43
10.83
1.47
0.04
-15.65
0.65
-5.61
-0.37
0.45
-0.1
1.84

> <PUBCHEM_SHAPE_SELFOVERLAP>
1074.618

> <PUBCHEM_SHAPE_VOLUME>
268

> <PUBCHEM_COORDINATE_TYPE>
2
5
10

$$$$
127027581
  -OEChem-05102415033D

 57 59  0     1  0  0  0  0  0999 V2000
   -4.1350    0.8578    0.0067 O   0  0  0  0  0  0  0  0  0  0  0  0
   -6.3745    1.3409    0.2140 O   0  0  0  0  0  0  0  0  0  0  0  0
    2.2957   -3.0418   -1.3292 O   0  0  0  0  0  0  0  0  0  0  0  0
    1.9528   -1.4633    0.3734 N   0  0  0  0  0  0  0  0  0  0  0  0
   -0.4948   -5.7087    0.2864 N   0  0  0  0  0  0  0  0  0  0  0  0
    5.8835    3.6304    0.0084 N   0  0  0  0  0  0  0  0  0  0  0  0
   -4.8058    3.1057   -0.4162 C   0  0  0  0  0  0  0  0  0  0  0  0
    0.5704   -3.4568    0.3307 C   0  0  1  0  0  0  0  0  0  0  0  0
   -0.7129   -2.6973    0.3381 C   0  0  0  0  0  0  0  0  0  0  0  0
    0.4815   -4.8418   -0.3686 C   0  0  0  0  0  0  0  0  0  0  0  0
   -3.8286    3.6566    0.6307 C   0  0  0  0  0  0  0  0  0  0  0  0
   -6.0480    4.0100   -0.4637 C   0  0  0  0  0  0  0  0  0  0  0  0
   -4.1499    3.0867   -1.8033 C   0  0  0  0  0  0  0  0  0  0  0  0
   -5.2235    1.6834   -0.0286 C   0  0  0  0  0  0  0  0  0  0  0  0
   -3.1107   -1.2716    0.3515 C   0  0  0  0  0  0  0  0  0  0  0  0
    1.7043   -2.6385   -0.3316 C   0  0  0  0  0  0  0  0  0  0  0  0
   -1.3202   -2.3429   -0.8667 C   0  0  0  0  0  0  0  0  0  0  0  0
   -1.3044   -2.3388    1.5494 C   0  0  0  0  0  0  0  0  0  0  0  0
   -4.4001   -0.5040    0.3580 C   0  0  0  0  0  0  0  0  0  0  0  0
   -2.5191   -1.6300   -0.8600 C   0  0  0  0  0  0  0  0  0  0  0  0
   -2.5033   -1.6259    1.5560 C   0  0  0  0  0  0  0  0  0  0  0  0
    2.9104   -0.4647    0.0767 C   0  0  0  0  0  0  0  0  0  0  0  0
    3.0279    0.6549    0.9022 C   0  0  0  0  0  0  0  0  0  0  0  0
    3.9729    1.6549    0.6197 C   0  0  0  0  0  0  0  0  0  0  0  0
    3.7332   -0.6003   -1.0390 C   0  0  0  0  0  0  0  0  0  0  0  0
    4.8039    1.5139   -0.5109 C   0  0  0  0  0  0  0  0  0  0  0  0
    4.6771    0.3830   -1.3344 C   0  0  0  0  0  0  0  0  0  0  0  0
    4.1150    2.7888    1.4279 C   0  0  0  0  0  0  0  0  0  0  0  0
    5.7311    2.5279   -0.7595 C   0  0  0  0  0  0  0  0  0  0  0  0
    5.0713    3.7315    1.0819 C   0  0  0  0  0  0  0  0  0  0  0  0
    0.9003   -3.6391    1.3645 H   0  0  0  0  0  0  0  0  0  0  0  0
    0.2165   -4.7387   -1.4274 H   0  0  0  0  0  0  0  0  0  0  0  0
    1.4600   -5.3351   -0.3315 H   0  0  0  0  0  0  0  0  0  0  0  0
   -2.9021    3.0723    0.6648 H   0  0  0  0  0  0  0  0  0  0  0  0
   -4.2683    3.6255    1.6343 H   0  0  0  0  0  0  0  0  0  0  0  0
   -3.5565    4.6952    0.4121 H   0  0  0  0  0  0  0  0  0  0  0  0
   -6.5516    4.0451    0.5094 H   0  0  0  0  0  0  0  0  0  0  0  0
   -6.7775    3.6448   -1.1960 H   0  0  0  0  0  0  0  0  0  0  0  0
   -5.7827    5.0367   -0.7398 H   0  0  0  0  0  0  0  0  0  0  0  0
   -4.8193    2.6429   -2.5492 H   0  0  0  0  0  0  0  0  0  0  0  0
   -3.2260    2.4972   -1.8054 H   0  0  0  0  0  0  0  0  0  0  0  0
   -3.8959    4.0992   -2.1361 H   0  0  0  0  0  0  0  0  0  0  0  0
   -0.8722   -2.6077   -1.8205 H   0  0  0  0  0  0  0  0  0  0  0  0
   -0.8433   -2.6062    2.4964 H   0  0  0  0  0  0  0  0  0  0  0  0
   -5.0959   -0.9467   -0.3656 H   0  0  0  0  0  0  0  0  0  0  0  0
   -4.8681   -0.5416    1.3493 H   0  0  0  0  0  0  0  0  0  0  0  0
   -2.9827   -1.3568   -1.8042 H   0  0  0  0  0  0  0  0  0  0  0  0
   -2.9517   -1.3511    2.5070 H   0  0  0  0  0  0  0  0  0  0  0  0
    1.3968   -1.2864    1.2069 H   0  0  0  0  0  0  0  0  0  0  0  0
   -0.5249   -6.6057   -0.1967 H   0  0  0  0  0  0  0  0  0  0  0  0
   -1.4280   -5.3093    0.1975 H   0  0  0  0  0  0  0  0  0  0  0  0
    2.3803    0.7529    1.7721 H   0  0  0  0  0  0  0  0  0  0  0  0
    3.6987   -1.4345   -1.7252 H   0  0  0  0  0  0  0  0  0  0  0  0
    5.3117    0.2631   -2.2097 H   0  0  0  0  0  0  0  0  0  0  0  0
    3.4977    2.9401    2.3081 H   0  0  0  0  0  0  0  0  0  0  0  0
    6.4016    2.4813   -1.6133 H   0  0  0  0  0  0  0  0  0  0  0  0
    5.2113    4.6238    1.6834 H   0  0  0  0  0  0  0  0  0  0  0  0
  1 14  1  0  0  0  0
  1 19  1  0  0  0  0
  2 14  2  0  0  0  0
  3 16  2  0  0  0  0
  4 16  1  0  0  0  0
  4 22  1  0  0  0  0
  4 49  1  0  0  0  0
  5 10  1  0  0  0  0
  5 50  1  0  0  0  0
  5 51  1  0  0  0  0
  6 29  2  0  0  0  0
  6 30  1  0  0  0  0
  7 11  1  0  0  0  0
  7 12  1  0  0  0  0
  7 13  1  0  0  0  0
  7 14  1  0  0  0  0
  8  9  1  0  0  0  0
  8 10  1  0  0  0  0
  8 16  1  0  0  0  0
  8 31  1  0  0  0  0
  9 17  2  0  0  0  0
  9 18  1  0  0  0  0
 10 32  1  0  0  0  0
 10 33  1  0  0  0  0
 11 34  1  0  0  0  0
 11 35  1  0  0  0  0
 11 36  1  0  0  0  0
 12 37  1  0  0  0  0
 12 38  1  0  0  0  0
 12 39  1  0  0  0  0
 13 40  1  0  0  0  0
 13 41  1  0  0  0  0
 13 42  1  0  0  0  0
 15 19  1  0  0  0  0
 15 20  2  0  0  0  0
 15 21  1  0  0  0  0
 17 20  1  0  0  0  0
 17 43  1  0  0  0  0
 18 21  2  0  0  0  0
 18 44  1  0  0  0  0
 19 45  1  0  0  0  0
 19 46  1  0  0  0  0
 20 47  1  0  0  0  0
 21 48  1  0  0  0  0
 22 23  2  0  0  0  0
 22 25  1  0  0  0  0
 23 24  1  0  0  0  0
 23 52  1  0  0  0  0
 24 26  2  0  0  0  0
 24 28  1  0  0  0  0
 25 27  2  0  0  0  0
 25 53  1  0  0  0  0
 26 27  1  0  0  0  0
 26 29  1  0  0  0  0
 27 54  1  0  0  0  0
 28 30  2  0  0  0  0
 28 55  1  0  0  0  0
 29 56  1  0  0  0  0
 30 57  1  0  0  0  0
M  END
> <PUBCHEM_COMPOUND_CID>
127027581

> <PUBCHEM_CONFORMER_RMSD>
1

> <PUBCHEM_CONFORMER_DIVERSEORDER>
1
66
19
105
62
56
95
100
12
97
78
55
20
47
5
67
31
92
80
39
74
49
77
111
9
8
99
88
69
36
30
76
102
113
44
108
71
32
68
117
6
7
63
107
109
25
65
50
60
61
106
17
87
42
43
101
37
59
14
24
35
93
54
82
15
38
57
85
96
114
16
13
41
58
83
40
90
51
75
46
89
112
115
98
116
48
64
70
53
104
11
86
79
22
52
103
10
91
28
84
81
4
34
27
26
3
94
45
21
110
18
23
72
33
73
2
29

> <PUBCHEM_MMFF94_PARTIAL_CHARGES>
38
1 -0.43
10 0.27
14 0.66
15 -0.14
16 0.57
17 -0.15
18 -0.15
19 0.42
2 -0.57
20 -0.15
21 -0.15
22 0.12
23 -0.15
25 -0.15
27 -0.15
28 -0.15
29 0.16
3 -0.57
30 0.16
4 -0.55
43 0.15
44 0.15
47 0.15
48 0.15
49 0.37
5 -0.99
50 0.36
51 0.36
52 0.15
53 0.15
54 0.15
55 0.15
56 0.15
57 0.15
6 -0.62
7 0.06
8 0.2
9 -0.14

> <PUBCHEM_EFFECTIVE_ROTOR_COUNT>
9

> <PUBCHEM_PHARMACOPHORE_FEATURES>
10
1 2 acceptor
1 3 acceptor
1 4 donor
1 5 cation
1 5 donor
1 6 acceptor
4 7 11 12 13 hydrophobe
6 22 23 24 25 26 27 rings
6 6 24 26 28 29 30 rings
6 9 15 17 18 20 21 rings

> <PUBCHEM_HEAVY_ATOM_COUNT>
30

> <PUBCHEM_ATOM_DEF_STEREO_COUNT>
0

> <PUBCHEM_ATOM_UDEF_STEREO_COUNT>
1

> <PUBCHEM_BOND_DEF_STEREO_COUNT>
0

> <PUBCHEM_BOND_UDEF_STEREO_COUNT>
0

> <PUBCHEM_ISOTOPIC_ATOM_COUNT>
0

> <PUBCHEM_COMPONENT_COUNT>
1

> <PUBCHEM_CACTVS_TAUTO_COUNT>
27

> <PUBCHEM_CONFORMER_ID>
0792497D00000001

> <PUBCHEM_MMFF94_ENERGY>
84.3364

> <PUBCHEM_FEATURE_SELFOVERLAP>
50.773

> <PUBCHEM_SHAPE_FINGERPRINT>
10556698 54 18054238626347203477
10675989 125 18195809570075218321
10842077 115 16882419785323614549
10928967 22 10807674310095539156
10937287 8 18411132532916803623
11014199 57 17472699599122439690
11059845 2 18122592142547981776
11386260 185 17619899566503122767
11720765 8 17915186720125623918
12107183 9 18263064614315604234
13590594 115 16969713183254730707
13944108 23 18049164363115728652
14068700 686 18410300207759266843
14223995 32 18411694388307874320
14251764 75 18341901744993852321
14289585 56 14743835357274830617
14347329 18 18337949095133753544
14429114 114 18410854348185864933
14739800 52 18114458943036109891
14848178 96 18265895761660781929
15198563 99 17909265033581668463
15320291 9 17903346009869794173
15400415 2 18410854365007674665
15513586 35 16520195944534899052
15721738 15 18202281381800645936
16988056 13 17979634529167144318
19053607 189 18338784624970811905
19304671 126 17775013353374497796
21033648 144 17985278606068156246
21033648 29 18339924930302615568
21033650 10 17827091902956213646
21049683 118 17024599885206797851
21388113 180 18411700980423095545
21857420 4 17258780317788263974
21859007 373 18409447003820451560
23379529 103 9295300438545543374
23569914 2 17243824937285637637
2838139 119 18411415086146512183
3418910 222 16823343494263348088
376196 1 18335422322702563859
437795 96 17910667992864288432
50150288 127 16628861482110102633
5047190 47 17399219860458853397
5047190 48 18260832626173556252
508706 21 17982727773298155416
5219985 13 18410854378002261591
5223283 242 16979012904690310735
550186 83 16515981263131070132
5776283 40 18265911172277643214
7288768 16 18040715887671896595
7808743 9 18194118744962137890
9849439 229 18409722980426523307
9980921 52 11603692185113486457

> <PUBCHEM_SHAPE_MULTIPOLES>
584.83
15.03
7.57
1.33
2.43
3.54
-0.01
-25.04
-1.41
1.58
0.03
-0.31
-0.23
2.54

> <PUBCHEM_SHAPE_SELFOVERLAP>
1250.595

> <PUBCHEM_SHAPE_VOLUME>
322.5

> <PUBCHEM_COORDINATE_TYPE>
2
5
10

$$$$
127030609
  -OEChem-05102415033D

 39 41  0     1  0  0  0  0  0999 V2000
   -1.3335   -0.7615   -1.0839 O   0  0  0  0  0  0  0  0  0  0  0  0
    0.0027    0.6703    0.2175 N   0  0  0  0  0  0  0  0  0  0  0  0
   -1.6667    3.2960   -0.4984 N   0  0  0  0  0  0  0  0  0  0  0  0
    6.2796   -0.6875    0.0183 N   0  0  0  0  0  0  0  0  0  0  0  0
   -2.4120    1.0137    0.1535 C   0  0  2  0  0  0  0  0  0  0  0  0
   -3.6396    0.1218    0.2569 C   0  0  0  0  0  0  0  0  0  0  0  0
   -2.6375    2.2362   -0.7595 C   0  0  0  0  0  0  0  0  0  0  0  0
   -1.2025    0.1955   -0.3259 C   0  0  0  0  0  0  0  0  0  0  0  0
    1.2940    0.1831    0.0115 C   0  0  0  0  0  0  0  0  0  0  0  0
   -4.4846   -0.0321   -0.8422 C   0  0  0  0  0  0  0  0  0  0  0  0
   -3.9204   -0.5419    1.4510 C   0  0  0  0  0  0  0  0  0  0  0  0
    3.6829    0.3111    0.4509 C   0  0  0  0  0  0  0  0  0  0  0  0
    2.3774    0.7895    0.6496 C   0  0  0  0  0  0  0  0  0  0  0  0
    3.8867   -0.7925   -0.4032 C   0  0  0  0  0  0  0  0  0  0  0  0
    1.4994   -0.9067   -0.8314 C   0  0  0  0  0  0  0  0  0  0  0  0
    2.7890   -1.3950   -1.0400 C   0  0  0  0  0  0  0  0  0  0  0  0
   -5.6107   -0.8501   -0.7470 C   0  0  0  0  0  0  0  0  0  0  0  0
   -5.0463   -1.3598    1.5462 C   0  0  0  0  0  0  0  0  0  0  0  0
   -5.8915   -1.5138    0.4472 C   0  0  0  0  0  0  0  0  0  0  0  0
    4.7894    0.8971    1.0763 C   0  0  0  0  0  0  0  0  0  0  0  0
    5.1980   -1.2399   -0.5762 C   0  0  0  0  0  0  0  0  0  0  0  0
    6.0464    0.3665    0.8289 C   0  0  0  0  0  0  0  0  0  0  0  0
   -2.2065    1.3837    1.1686 H   0  0  0  0  0  0  0  0  0  0  0  0
   -2.5651    1.9572   -1.8172 H   0  0  0  0  0  0  0  0  0  0  0  0
   -3.6344    2.6602   -0.5918 H   0  0  0  0  0  0  0  0  0  0  0  0
   -0.0605    1.4708    0.8427 H   0  0  0  0  0  0  0  0  0  0  0  0
   -4.2863    0.4556   -1.7915 H   0  0  0  0  0  0  0  0  0  0  0  0
   -3.2689   -0.4327    2.3139 H   0  0  0  0  0  0  0  0  0  0  0  0
    2.2085    1.6412    1.3068 H   0  0  0  0  0  0  0  0  0  0  0  0
    0.7134   -1.4262   -1.3609 H   0  0  0  0  0  0  0  0  0  0  0  0
    2.9332   -2.2464   -1.7015 H   0  0  0  0  0  0  0  0  0  0  0  0
   -1.8359    4.0726   -1.1365 H   0  0  0  0  0  0  0  0  0  0  0  0
   -0.7273    2.9591   -0.7050 H   0  0  0  0  0  0  0  0  0  0  0  0
   -6.2666   -0.9736   -1.6038 H   0  0  0  0  0  0  0  0  0  0  0  0
   -5.2646   -1.8774    2.4757 H   0  0  0  0  0  0  0  0  0  0  0  0
   -6.7675   -2.1516    0.5210 H   0  0  0  0  0  0  0  0  0  0  0  0
    4.6812    1.7480    1.7419 H   0  0  0  0  0  0  0  0  0  0  0  0
    5.4245   -2.0851   -1.2204 H   0  0  0  0  0  0  0  0  0  0  0  0
    6.9285    0.7935    1.2949 H   0  0  0  0  0  0  0  0  0  0  0  0
  1  8  2  0  0  0  0
  2  8  1  0  0  0  0
  2  9  1  0  0  0  0
  2 26  1  0  0  0  0
  3  7  1  0  0  0  0
  3 32  1  0  0  0  0
  3 33  1  0  0  0  0
  4 21  2  0  0  0  0
  4 22  1  0  0  0  0
  5  6  1  0  0  0  0
  5  7  1  0  0  0  0
  5  8  1  0  0  0  0
  5 23  1  0  0  0  0
  6 10  2  0  0  0  0
  6 11  1  0  0  0  0
  7 24  1  0  0  0  0
  7 25  1  0  0  0  0
  9 13  2  0  0  0  0
  9 15  1  0  0  0  0
 10 17  1  0  0  0  0
 10 27  1  0  0  0  0
 11 18  2  0  0  0  0
 11 28  1  0  0  0  0
 12 13  1  0  0  0  0
 12 14  2  0  0  0  0
 12 20  1  0  0  0  0
 13 29  1  0  0  0  0
 14 16  1  0  0  0  0
 14 21  1  0  0  0  0
 15 16  2  0  0  0  0
 15 30  1  0  0  0  0
 16 31  1  0  0  0  0
 17 19  2  0  0  0  0
 17 34  1  0  0  0  0
 18 19  1  0  0  0  0
 18 35  1  0  0  0  0
 19 36  1  0  0  0  0
 20 22  2  0  0  0  0
 20 37  1  0  0  0  0
 21 38  1  0  0  0  0
 22 39  1  0  0  0  0
M  END
> <PUBCHEM_COMPOUND_CID>
127030609

> <PUBCHEM_CONFORMER_RMSD>
0.8

> <PUBCHEM_CONFORMER_DIVERSEORDER>
1
4
14
10
22
19
5
9
11
17
7
8
2
18
20
12
21
16
13
15
3
6

> <PUBCHEM_MMFF94_PARTIAL_CHARGES>
34
1 -0.57
10 -0.15
11 -0.15
13 -0.15
15 -0.15
16 -0.15
17 -0.15
18 -0.15
19 -0.15
2 -0.55
20 -0.15
21 0.16
22 0.16
26 0.37
27 0.15
28 0.15
29 0.15
3 -0.99
30 0.15
31 0.15
32 0.36
33 0.36
34 0.15
35 0.15
36 0.15
37 0.15
38 0.15
39 0.15
4 -0.62
5 0.2
6 -0.14
7 0.27
8 0.57
9 0.12

> <PUBCHEM_EFFECTIVE_ROTOR_COUNT>
5

> <PUBCHEM_PHARMACOPHORE_FEATURES>
8
1 1 acceptor
1 2 donor
1 3 cation
1 3 donor
1 4 acceptor
6 4 12 14 20 21 22 rings
6 6 10 11 17 18 19 rings
6 9 12 13 14 15 16 rings

> <PUBCHEM_HEAVY_ATOM_COUNT>
22

> <PUBCHEM_ATOM_DEF_STEREO_COUNT>
1

> <PUBCHEM_ATOM_UDEF_STEREO_COUNT>
0

> <PUBCHEM_BOND_DEF_STEREO_COUNT>
0

> <PUBCHEM_BOND_UDEF_STEREO_COUNT>
0

> <PUBCHEM_ISOTOPIC_ATOM_COUNT>
0

> <PUBCHEM_COMPONENT_COUNT>
1

> <PUBCHEM_CACTVS_TAUTO_COUNT>
27

> <PUBCHEM_CONFORMER_ID>
0792555100000001

> <PUBCHEM_MMFF94_ENERGY>
66.1172

> <PUBCHEM_FEATURE_SELFOVERLAP>
40.623

> <PUBCHEM_SHAPE_FINGERPRINT>
10 15 18339350964317294976
10366900 7 18259987067360696451
11089746 13 14273455890271588094
11315181 36 17240768388699911773
12107183 9 16338949870769043691
12166972 35 18060140951273832720
12236239 1 15626508289405401890
12403259 415 18060409210483127544
12516196 113 18335984250890780305
12596602 18 17385439943040293936
12616971 3 15195558001354825192
13073987 5 17775005644371503130
13668630 136 15791451530425427626
13782708 43 18339929195538047622
1420 363 18410014346628611482
14341114 176 18202285814222101842
14341114 328 16128665158469129531
14848160 23 18187081775817668563
14849402 71 16558177350156994688
15183329 4 12107777523580915523
15188451 53 17676200286456566130
15716309 27 18060702796982620075
17138139 8 16516527870644207539
17349148 13 16877952624045255498
17844677 252 18272654536756650672
18222031 100 17240484710774074812
18927931 339 18334580135845369143
19433438 28 18412542094307689984
19489759 90 17603583015504401493
20281389 69 11887677260147302187
20645477 70 17489309642864992406
21033648 29 18058713741640521248
21267235 1 17846504704167920382
21623969 137 18131636685821037686
21756936 100 14405181764082413359
2297311 6 18335145280015453701
2303208 19 18202009781132635398
23198884 109 13262395579589117443
23402539 116 18040714757942308781
23557571 272 18335138635653899165
23559900 14 17458908270594707957
268830 7 15554150541746818080
29717793 49 14706922926621984610
314173 85 18408611366192862825
3545911 37 17917709111278512870
4325135 7 17704351086983758647
5104073 3 18199467671462552130
5758199 1 17131829911277189698
7495541 125 18413108372866079416
9996256 80 17561079232774241782

> <PUBCHEM_SHAPE_MULTIPOLES>
431.94
15.87
1.9
1.2
4.33
1.42
0.21
-5.78
3
-1.37
-0.39
-0.65
-0.2
1.76

> <PUBCHEM_SHAPE_SELFOVERLAP>
940.53

> <PUBCHEM_SHAPE_VOLUME>
233

> <PUBCHEM_COORDINATE_TYPE>
2
5
10

$$$$
127028823
  -OEChem-05102415033D

 45 48  0     1  0  0  0  0  0999 V2000
   -0.0937   -2.7170    0.2607 O   0  0  0  0  0  0  0  0  0  0  0  0
    0.5007   -0.6169   -0.6022 N   0  0  0  0  0  0  0  0  0  0  0  0
   -3.7265   -2.4719   -1.9976 N   0  0  0  0  0  0  0  0  0  0  0  0
    6.6720    0.9414    0.4058 N   0  0  0  0  0  0  0  0  0  0  0  0
   -1.7801   -1.3937   -0.8783 C   0  0  2  0  0  0  0  0  0  0  0  0
   -2.6042   -0.6720    0.1425 C   0  0  0  0  0  0  0  0  0  0  0  0
   -3.0924    0.6263   -0.0773 C   0  0  0  0  0  0  0  0  0  0  0  0
   -2.4263   -2.7132   -1.3772 C   0  0  0  0  0  0  0  0  0  0  0  0
   -0.3602   -1.6798   -0.3402 C   0  0  0  0  0  0  0  0  0  0  0  0
   -3.8647    1.2549    0.9284 C   0  0  0  0  0  0  0  0  0  0  0  0
   -2.8735   -1.3411    1.3367 C   0  0  0  0  0  0  0  0  0  0  0  0
   -2.8311    1.3147   -1.2732 C   0  0  0  0  0  0  0  0  0  0  0  0
   -4.1259    0.5665    2.1244 C   0  0  0  0  0  0  0  0  0  0  0  0
   -3.6328   -0.7231    2.3257 C   0  0  0  0  0  0  0  0  0  0  0  0
    1.8708   -0.5120   -0.2642 C   0  0  0  0  0  0  0  0  0  0  0  0
   -4.3528    2.5532    0.7087 C   0  0  0  0  0  0  0  0  0  0  0  0
   -3.3242    2.6042   -1.4746 C   0  0  0  0  0  0  0  0  0  0  0  0
    2.5856    0.6383   -0.6023 C   0  0  0  0  0  0  0  0  0  0  0  0
    3.9463    0.7562   -0.2745 C   0  0  0  0  0  0  0  0  0  0  0  0
   -4.0836    3.2223   -0.4856 C   0  0  0  0  0  0  0  0  0  0  0  0
    2.5036   -1.5575    0.4042 C   0  0  0  0  0  0  0  0  0  0  0  0
    4.5834   -0.3044    0.4021 C   0  0  0  0  0  0  0  0  0  0  0  0
    3.8542   -1.4573    0.7376 C   0  0  0  0  0  0  0  0  0  0  0  0
    4.6901    1.8964   -0.5996 C   0  0  0  0  0  0  0  0  0  0  0  0
    5.9364   -0.1512    0.7113 C   0  0  0  0  0  0  0  0  0  0  0  0
    6.0290    1.9365   -0.2415 C   0  0  0  0  0  0  0  0  0  0  0  0
   -1.6222   -0.8235   -1.7945 H   0  0  0  0  0  0  0  0  0  0  0  0
   -1.7636   -3.1906   -2.1095 H   0  0  0  0  0  0  0  0  0  0  0  0
   -2.5541   -3.4317   -0.5599 H   0  0  0  0  0  0  0  0  0  0  0  0
   -2.5015   -2.3444    1.5241 H   0  0  0  0  0  0  0  0  0  0  0  0
   -2.2508    0.9139   -2.0945 H   0  0  0  0  0  0  0  0  0  0  0  0
    0.1185    0.1907   -1.0891 H   0  0  0  0  0  0  0  0  0  0  0  0
   -4.7170    1.0302    2.9114 H   0  0  0  0  0  0  0  0  0  0  0  0
   -3.8418   -1.2440    3.2556 H   0  0  0  0  0  0  0  0  0  0  0  0
   -4.9485    3.0557    1.4679 H   0  0  0  0  0  0  0  0  0  0  0  0
   -4.0849   -3.3454   -2.3810 H   0  0  0  0  0  0  0  0  0  0  0  0
   -3.6163   -1.8363   -2.7867 H   0  0  0  0  0  0  0  0  0  0  0  0
   -3.1154    3.1270   -2.4037 H   0  0  0  0  0  0  0  0  0  0  0  0
    2.0828    1.4506   -1.1247 H   0  0  0  0  0  0  0  0  0  0  0  0
   -4.4670    4.2262   -0.6430 H   0  0  0  0  0  0  0  0  0  0  0  0
    2.0187   -2.4782    0.6956 H   0  0  0  0  0  0  0  0  0  0  0  0
    4.3344   -2.2824    1.2590 H   0  0  0  0  0  0  0  0  0  0  0  0
    4.2423    2.7376   -1.1199 H   0  0  0  0  0  0  0  0  0  0  0  0
    6.4871   -0.9301    1.2316 H   0  0  0  0  0  0  0  0  0  0  0  0
    6.6386    2.8031   -0.4761 H   0  0  0  0  0  0  0  0  0  0  0  0
  1  9  2  0  0  0  0
  2  9  1  0  0  0  0
  2 15  1  0  0  0  0
  2 32  1  0  0  0  0
  3  8  1  0  0  0  0
  3 36  1  0  0  0  0
  3 37  1  0  0  0  0
  4 25  2  0  0  0  0
  4 26  1  0  0  0  0
  5  6  1  0  0  0  0
  5  8  1  0  0  0  0
  5  9  1  0  0  0  0
  5 27  1  0  0  0  0
  6  7  1  0  0  0  0
  6 11  2  0  0  0  0
  7 10  1  0  0  0  0
  7 12  2  0  0  0  0
  8 28  1  0  0  0  0
  8 29  1  0  0  0  0
 10 13  1  0  0  0  0
 10 16  2  0  0  0  0
 11 14  1  0  0  0  0
 11 30  1  0  0  0  0
 12 17  1  0  0  0  0
 12 31  1  0  0  0  0
 13 14  2  0  0  0  0
 13 33  1  0  0  0  0
 14 34  1  0  0  0  0
 15 18  2  0  0  0  0
 15 21  1  0  0  0  0
 16 20  1  0  0  0  0
 16 35  1  0  0  0  0
 17 20  2  0  0  0  0
 17 38  1  0  0  0  0
 18 19  1  0  0  0  0
 18 39  1  0  0  0  0
 19 22  2  0  0  0  0
 19 24  1  0  0  0  0
 20 40  1  0  0  0  0
 21 23  2  0  0  0  0
 21 41  1  0  0  0  0
 22 23  1  0  0  0  0
 22 25  1  0  0  0  0
 23 42  1  0  0  0  0
 24 26  2  0  0  0  0
 24 43  1  0  0  0  0
 25 44  1  0  0  0  0
 26 45  1  0  0  0  0
M  END
> <PUBCHEM_COMPOUND_CID>
127028823

> <PUBCHEM_CONFORMER_RMSD>
0.8

> <PUBCHEM_CONFORMER_DIVERSEORDER>
2
38
66
24
61
3
35
48
31
57
8
40
15
58
55
34
51
39
41
37
56
67
46
27
60
23
42
44
45
69
63
17
43
7
59
12
50
54
6
36
16
28
33
68
29
4
1
14
20
53
9
49
52
30
5
64
65
25
18
62
26
13
19
11
32
21
22
10
47

> <PUBCHEM_MMFF94_PARTIAL_CHARGES>
38
1 -0.57
11 -0.15
12 -0.15
13 -0.15
14 -0.15
15 0.12
16 -0.15
17 -0.15
18 -0.15
2 -0.55
20 -0.15
21 -0.15
23 -0.15
24 -0.15
25 0.16
26 0.16
3 -0.99
30 0.15
31 0.15
32 0.37
33 0.15
34 0.15
35 0.15
36 0.36
37 0.36
38 0.15
39 0.15
4 -0.62
40 0.15
41 0.15
42 0.15
43 0.15
44 0.15
45 0.15
5 0.2
6 -0.14
8 0.27
9 0.57

> <PUBCHEM_EFFECTIVE_ROTOR_COUNT>
5

> <PUBCHEM_PHARMACOPHORE_FEATURES>
9
1 1 acceptor
1 2 donor
1 3 cation
1 3 donor
1 4 acceptor
6 15 18 19 21 22 23 rings
6 4 19 22 24 25 26 rings
6 6 7 10 11 13 14 rings
6 7 10 12 16 17 20 rings

> <PUBCHEM_HEAVY_ATOM_COUNT>
26

> <PUBCHEM_ATOM_DEF_STEREO_COUNT>
0

> <PUBCHEM_ATOM_UDEF_STEREO_COUNT>
1

> <PUBCHEM_BOND_DEF_STEREO_COUNT>
0

> <PUBCHEM_BOND_UDEF_STEREO_COUNT>
0

> <PUBCHEM_ISOTOPIC_ATOM_COUNT>
0

> <PUBCHEM_COMPONENT_COUNT>
1

> <PUBCHEM_CACTVS_TAUTO_COUNT>
48

> <PUBCHEM_CONFORMER_ID>
07924E5700000002

> <PUBCHEM_MMFF94_ENERGY>
86.0222

> <PUBCHEM_FEATURE_SELFOVERLAP>
45.725

> <PUBCHEM_SHAPE_FINGERPRINT>
105312 117 16988567917916516846
11101153 10 18123183769133309532
11370993 144 17968939669541315122
11545043 162 13840254914846001718
12107183 9 18121488069385855434
12422481 6 18187356589948676612
12760667 363 8574421029110754725
12788726 201 18198324329641746927
12892183 10 17749399151894331323
13583140 156 17894346648897426737
13994607 96 17704075071248240713
14790565 3 18189903187891610052
14856354 85 17095821974508577058
14950920 106 16878231956039287056
15188451 53 15792307006611906315
15513586 35 18049175650047462569
16110190 28 18041006132866772332
18393751 57 18337122185512478963
21302155 148 18334305257659363732
21864079 5 18334574629333402678
27216 239 18335144155287773641
283562 15 18339915026367364375
350125 39 18343017839532055603
3552219 110 17772198763317461379
376196 1 17611739008413838749
437795 96 17968084318268410316
469060 322 18338524161480060307
497634 4 17703231831518007855
5081480 168 17557173639008043260
5104073 3 17967807237627603856
5219985 9 17771055279888758567
57724786 102 18055643810670204531
59755656 520 17346329175989384711
6086070 43 17632001019143288368
636775 72 17979352294936809760
6677587 24 17036932995504088829
7226269 152 18131071533066306688
7808743 9 18342173358213564848
7970288 3 7997100453908292713
90127 26 18335146354047525370
9981440 41 18262519187437970395

> <PUBCHEM_SHAPE_MULTIPOLES>
514.26
14.19
3.27
1.63
20.71
0.58
0.32
8.37
2.95
-3.34
-1.18
-2.72
-0.45
-0.77

> <PUBCHEM_SHAPE_SELFOVERLAP>
1142.635

> <PUBCHEM_SHAPE_VOLUME>
272.6

> <PUBCHEM_COORDINATE_TYPE>
2
5
10

$$$$
59563827
  -OEChem-05102415033D

 44 46  0     1  0  0  0  0  0999 V2000
    0.4450    1.7745   -1.3340 O   0  0  0  0  0  0  0  0  0  0  0  0
    4.5292   -1.5204   -1.7778 O   0  0  0  0  0  0  0  0  0  0  0  0
    5.0158   -2.9688    0.5441 O   0  0  0  0  0  0  0  0  0  0  0  0
   -0.5740    0.8764    0.5854 N   0  0  0  0  0  0  0  0  0  0  0  0
    3.6343    3.2101    1.1148 N   0  0  0  0  0  0  0  0  0  0  0  0
   -6.6490   -1.0171   -0.3045 N   0  0  0  0  0  0  0  0  0  0  0  0
    1.7347    1.6560    0.7077 C   0  0  1  0  0  0  0  0  0  0  0  0
    2.6139    0.4160    0.6603 C   0  0  0  0  0  0  0  0  0  0  0  0
    2.4765    2.9347    0.2677 C   0  0  0  0  0  0  0  0  0  0  0  0
    0.4772    1.4477   -0.1508 C   0  0  0  0  0  0  0  0  0  0  0  0
    3.1764    0.0056   -0.5484 C   0  0  0  0  0  0  0  0  0  0  0  0
    2.8588   -0.3102    1.8258 C   0  0  0  0  0  0  0  0  0  0  0  0
   -1.8562    0.5452    0.1455 C   0  0  0  0  0  0  0  0  0  0  0  0
    3.9838   -1.1312   -0.5916 C   0  0  0  0  0  0  0  0  0  0  0  0
    3.6661   -1.4470    1.7824 C   0  0  0  0  0  0  0  0  0  0  0  0
   -4.0685   -0.3545    0.6063 C   0  0  0  0  0  0  0  0  0  0  0  0
   -2.7750   -0.0147    1.0349 C   0  0  0  0  0  0  0  0  0  0  0  0
    4.2286   -1.8574    0.5738 C   0  0  0  0  0  0  0  0  0  0  0  0
   -4.4293   -0.1224   -0.7372 C   0  0  0  0  0  0  0  0  0  0  0  0
   -2.2164    0.7729   -1.1807 C   0  0  0  0  0  0  0  0  0  0  0  0
   -3.4969    0.4418   -1.6234 C   0  0  0  0  0  0  0  0  0  0  0  0
   -5.0121   -0.9170    1.4736 C   0  0  0  0  0  0  0  0  0  0  0  0
   -5.7237   -0.4727   -1.1265 C   0  0  0  0  0  0  0  0  0  0  0  0
   -6.2684   -1.2248    0.9741 C   0  0  0  0  0  0  0  0  0  0  0  0
    4.2292   -0.7228   -2.9215 C   0  0  0  0  0  0  0  0  0  0  0  0
    1.4053    1.8202    1.7438 H   0  0  0  0  0  0  0  0  0  0  0  0
    2.8070    2.8716   -0.7755 H   0  0  0  0  0  0  0  0  0  0  0  0
    1.7902    3.7879    0.3256 H   0  0  0  0  0  0  0  0  0  0  0  0
    2.9547    0.6022   -1.4257 H   0  0  0  0  0  0  0  0  0  0  0  0
    2.4275   -0.0029    2.7746 H   0  0  0  0  0  0  0  0  0  0  0  0
   -0.3882    0.6672    1.5639 H   0  0  0  0  0  0  0  0  0  0  0  0
    3.8486   -2.0035    2.6978 H   0  0  0  0  0  0  0  0  0  0  0  0
   -2.4856   -0.1897    2.0700 H   0  0  0  0  0  0  0  0  0  0  0  0
    4.0875    4.0656    0.7961 H   0  0  0  0  0  0  0  0  0  0  0  0
    4.3260    2.4693    1.0092 H   0  0  0  0  0  0  0  0  0  0  0  0
   -1.5614    1.1994   -1.9271 H   0  0  0  0  0  0  0  0  0  0  0  0
   -3.7629    0.6253   -2.6621 H   0  0  0  0  0  0  0  0  0  0  0  0
   -4.7796   -1.1134    2.5158 H   0  0  0  0  0  0  0  0  0  0  0  0
   -6.0659   -0.3204   -2.1465 H   0  0  0  0  0  0  0  0  0  0  0  0
   -7.0267   -1.6621    1.6154 H   0  0  0  0  0  0  0  0  0  0  0  0
    5.0728   -3.3405    1.4411 H   0  0  0  0  0  0  0  0  0  0  0  0
    3.1588   -0.7358   -3.1539 H   0  0  0  0  0  0  0  0  0  0  0  0
    4.6230    0.2943   -2.8196 H   0  0  0  0  0  0  0  0  0  0  0  0
    4.7438   -1.1774   -3.7745 H   0  0  0  0  0  0  0  0  0  0  0  0
  1 10  2  0  0  0  0
  2 14  1  0  0  0  0
  2 25  1  0  0  0  0
  3 18  1  0  0  0  0
  3 41  1  0  0  0  0
  4 10  1  0  0  0  0
  4 13  1  0  0  0  0
  4 31  1  0  0  0  0
  5  9  1  0  0  0  0
  5 34  1  0  0  0  0
  5 35  1  0  0  0  0
  6 23  2  0  0  0  0
  6 24  1  0  0  0  0
  7  8  1  0  0  0  0
  7  9  1  0  0  0  0
  7 10  1  0  0  0  0
  7 26  1  0  0  0  0
  8 11  2  0  0  0  0
  8 12  1  0  0  0  0
  9 27  1  0  0  0  0
  9 28  1  0  0  0  0
 11 14  1  0  0  0  0
 11 29  1  0  0  0  0
 12 15  2  0  0  0  0
 12 30  1  0  0  0  0
 13 17  2  0  0  0  0
 13 20  1  0  0  0  0
 14 18  2  0  0  0  0
 15 18  1  0  0  0  0
 15 32  1  0  0  0  0
 16 17  1  0  0  0  0
 16 19  2  0  0  0  0
 16 22  1  0  0  0  0
 17 33  1  0  0  0  0
 19 21  1  0  0  0  0
 19 23  1  0  0  0  0
 20 21  2  0  0  0  0
 20 36  1  0  0  0  0
 21 37  1  0  0  0  0
 22 24  2  0  0  0  0
 22 38  1  0  0  0  0
 23 39  1  0  0  0  0
 24 40  1  0  0  0  0
 25 42  1  0  0  0  0
 25 43  1  0  0  0  0
 25 44  1  0  0  0  0
M  END
> <PUBCHEM_COMPOUND_CID>
59563827

> <PUBCHEM_CONFORMER_RMSD>
0.8

> <PUBCHEM_CONFORMER_DIVERSEORDER>
1
43
139
137
64
40
87
131
101
52
129
58
79
76
116
80
49
78
83
135
132
50
154
42
41
106
29
124
133
44
32
128
89
155
105
74
66
13
85
28
77
45
7
146
156
55
82
140
127
147
72
115
120
103
95
27
67
70
18
98
53
14
152
30
109
61
4
110
5
9
134
145
48
39
141
118
22
60
102
88
91
75
63
68
57
65
12
108
123
15
114
104
51
117
136
126
11
94
144
3
34
90
56
148
26
143
93
138
119
46
23
86
37
122
10
71
47
111
16
121
107
142
112
150
38
100
54
97
96
99
20
31
153
35
81
69
84
151
17
149
62
130
25
92
21
73
113
24
59
33
6
125
19
36
2
8

> <PUBCHEM_MMFF94_PARTIAL_CHARGES>
36
1 -0.57
10 0.57
11 -0.15
12 -0.15
13 0.12
14 0.08
15 -0.15
17 -0.15
18 0.08
2 -0.36
20 -0.15
21 -0.15
22 -0.15
23 0.16
24 0.16
25 0.28
29 0.15
3 -0.53
30 0.15
31 0.37
32 0.15
33 0.15
34 0.36
35 0.36
36 0.15
37 0.15
38 0.15
39 0.15
4 -0.55
40 0.15
41 0.45
5 -0.99
6 -0.62
7 0.2
8 -0.14
9 0.27

> <PUBCHEM_EFFECTIVE_ROTOR_COUNT>
6

> <PUBCHEM_PHARMACOPHORE_FEATURES>
10
1 1 acceptor
1 2 acceptor
1 3 donor
1 4 donor
1 5 cation
1 5 donor
1 6 acceptor
6 13 16 17 19 20 21 rings
6 6 16 19 22 23 24 rings
6 8 11 12 14 15 18 rings

> <PUBCHEM_HEAVY_ATOM_COUNT>
25

> <PUBCHEM_ATOM_DEF_STEREO_COUNT>
0

> <PUBCHEM_ATOM_UDEF_STEREO_COUNT>
1

> <PUBCHEM_BOND_DEF_STEREO_COUNT>
0

> <PUBCHEM_BOND_UDEF_STEREO_COUNT>
0

> <PUBCHEM_ISOTOPIC_ATOM_COUNT>
0

> <PUBCHEM_COMPONENT_COUNT>
1

> <PUBCHEM_CACTVS_TAUTO_COUNT>
15

> <PUBCHEM_CONFORMER_ID>
038CDF3300000001

> <PUBCHEM_MMFF94_ENERGY>
82.4219

> <PUBCHEM_FEATURE_SELFOVERLAP>
50.774

> <PUBCHEM_SHAPE_FINGERPRINT>
10319926 262 14979966847811846247
10369192 42 17753045292015368468
10498660 4 11891344131346424068
10692045 39 13470141639587909413
10928967 22 18260263040748785403
11059845 2 15622880858563775978
11128504 68 14490190510021384531
11991303 11 17827645747342545997
12363563 72 18339638924325253048
12422481 6 16702031833654788921
12616971 3 17703788141826386573
12633257 1 16558734720462698010
12670546 177 15791732983842580447
12778500 126 15123521254661358031
12892183 10 15266773317877586794
13533116 47 18342174514103112817
13617811 41 16588020256161419583
13782708 43 18335418015641403051
13914758 101 17988921138421075061
13955234 65 18270392923185417568
13965767 371 11743256391302458714
14211702 104 17845933069664689279
14251758 9 17845659145055367617
14251764 30 18058744485417398246
14341114 176 14908183023553224838
14341114 328 15338821097614738602
14366163 111 14129060304849539847
14528608 73 13767926823562153467
14848178 96 10881695580756705790
14910302 57 17458333157261956935
15183329 4 16008746884131066959
15575132 122 12829476018921522687
17349148 13 18131356323609783883
17844677 252 18411416207338821577
1813 80 18202005382986027060
18222031 100 18273497849178937478
193927 3 18341615888775446345
20369508 70 18335132090503093384
20645477 70 18410851092178369248
21033650 10 15792285973719798661
22061861 79 18261105292883758031
2215653 11 17967523585165816023
2303208 19 17967535705616182299
23522609 53 17533243906828654957
23559900 14 17385721409173595841
239999 70 18334857272699622880
312423 11 18342748415907173369
312425 54 16056881308377492239
3421961 26 18410006646132136136
34797466 226 16008759021703383711
44317340 157 8142091979053467777
46194498 28 17240485840018190620
465052 167 18411700980280638431
5104073 3 18411132529075771065
543368 44 13045950127186919559
57359948 33 17095790084091185141
6823239 73 17894628183967113976
7970288 3 18340205176755948002
8863177 126 18261959647493838371
960060 61 17385727988726032654
9841814 1 18413384324646768352

> <PUBCHEM_SHAPE_MULTIPOLES>
481.94
15.01
2.49
1.98
16.56
0.95
0.97
-9.25
1.11
-4.46
-0.73
-1.71
-0.38
1.34

> <PUBCHEM_SHAPE_SELFOVERLAP>
1046.965

> <PUBCHEM_SHAPE_VOLUME>
261.5

> <PUBCHEM_COORDINATE_TYPE>
2
5
10

$$$$
127029119
  -OEChem-05102415033D

 51 53  0     1  0  0  0  0  0999 V2000
   -4.9523    0.5773    0.1810 O   0  0  0  0  0  0  0  0  0  0  0  0
    0.9548   -2.4128   -1.5512 O   0  0  0  0  0  0  0  0  0  0  0  0
   -3.5341    2.4071   -0.1396 O   0  0  0  0  0  0  0  0  0  0  0  0
    1.5602   -1.3003    0.4300 N   0  0  0  0  0  0  0  0  0  0  0  0
   -1.7054   -4.8624    0.7186 N   0  0  0  0  0  0  0  0  0  0  0  0
    6.7481    2.4473   -0.1390 N   0  0  0  0  0  0  0  0  0  0  0  0
   -0.3839   -2.7744    0.4294 C   0  0  1  0  0  0  0  0  0  0  0  0
   -1.6092   -1.8759    0.3632 C   0  0  0  0  0  0  0  0  0  0  0  0
   -0.6632   -4.2075   -0.0680 C   0  0  0  0  0  0  0  0  0  0  0  0
    0.7745   -2.1512   -0.3651 C   0  0  0  0  0  0  0  0  0  0  0  0
   -2.2243   -1.6253   -0.8633 C   0  0  0  0  0  0  0  0  0  0  0  0
   -2.1177   -1.3022    1.5286 C   0  0  0  0  0  0  0  0  0  0  0  0
    2.6867   -0.5661    0.0568 C   0  0  0  0  0  0  0  0  0  0  0  0
   -3.8565   -0.2277    0.2407 C   0  0  0  0  0  0  0  0  0  0  0  0
   -3.3480   -0.8013   -0.9247 C   0  0  0  0  0  0  0  0  0  0  0  0
   -3.2413   -0.4781    1.4674 C   0  0  0  0  0  0  0  0  0  0  0  0
    4.4787    0.9727    0.6373 C   0  0  0  0  0  0  0  0  0  0  0  0
    3.3446    0.2271    0.9984 C   0  0  0  0  0  0  0  0  0  0  0  0
   -5.9472    2.7448   -0.0678 C   0  0  0  0  0  0  0  0  0  0  0  0
    4.9464    0.9100   -0.6917 C   0  0  0  0  0  0  0  0  0  0  0  0
    3.1518   -0.6253   -1.2549 C   0  0  0  0  0  0  0  0  0  0  0  0
    4.2767    0.1083   -1.6309 C   0  0  0  0  0  0  0  0  0  0  0  0
   -4.6592    1.9400   -0.0167 C   0  0  0  0  0  0  0  0  0  0  0  0
    5.1602    1.7769    1.5581 C   0  0  0  0  0  0  0  0  0  0  0  0
   -5.7307    4.1467    0.4956 C   0  0  0  0  0  0  0  0  0  0  0  0
   -6.4581    2.8054   -1.5024 C   0  0  0  0  0  0  0  0  0  0  0  0
    6.0765    1.6645   -1.0134 C   0  0  0  0  0  0  0  0  0  0  0  0
    6.2719    2.4826    1.1238 C   0  0  0  0  0  0  0  0  0  0  0  0
   -0.0600   -2.8590    1.4768 H   0  0  0  0  0  0  0  0  0  0  0  0
   -0.9572   -4.2167   -1.1240 H   0  0  0  0  0  0  0  0  0  0  0  0
    0.2558   -4.8011    0.0053 H   0  0  0  0  0  0  0  0  0  0  0  0
   -1.8439   -2.0605   -1.7831 H   0  0  0  0  0  0  0  0  0  0  0  0
   -1.6490   -1.4877    2.4912 H   0  0  0  0  0  0  0  0  0  0  0  0
    1.2797   -1.1922    1.4022 H   0  0  0  0  0  0  0  0  0  0  0  0
   -3.8226   -0.6100   -1.8833 H   0  0  0  0  0  0  0  0  0  0  0  0
   -3.6325   -0.0345    2.3789 H   0  0  0  0  0  0  0  0  0  0  0  0
    2.9747    0.2681    2.0218 H   0  0  0  0  0  0  0  0  0  0  0  0
   -1.8513   -5.8063    0.3627 H   0  0  0  0  0  0  0  0  0  0  0  0
   -2.5918   -4.3751    0.5952 H   0  0  0  0  0  0  0  0  0  0  0  0
   -6.6883    2.2423    0.5659 H   0  0  0  0  0  0  0  0  0  0  0  0
    2.6958   -1.2132   -2.0388 H   0  0  0  0  0  0  0  0  0  0  0  0
    4.6274    0.0518   -2.6590 H   0  0  0  0  0  0  0  0  0  0  0  0
    4.8370    1.8561    2.5916 H   0  0  0  0  0  0  0  0  0  0  0  0
   -5.3384    4.0977    1.5172 H   0  0  0  0  0  0  0  0  0  0  0  0
   -6.6717    4.7061    0.5194 H   0  0  0  0  0  0  0  0  0  0  0  0
   -5.0129    4.7148   -0.1065 H   0  0  0  0  0  0  0  0  0  0  0  0
   -7.4015    3.3580   -1.5591 H   0  0  0  0  0  0  0  0  0  0  0  0
   -6.6309    1.7981   -1.8967 H   0  0  0  0  0  0  0  0  0  0  0  0
   -5.7334    3.2953   -2.1623 H   0  0  0  0  0  0  0  0  0  0  0  0
    6.4887    1.6612   -2.0188 H   0  0  0  0  0  0  0  0  0  0  0  0
    6.8264    3.1169    1.8078 H   0  0  0  0  0  0  0  0  0  0  0  0
  1 14  1  0  0  0  0
  1 23  1  0  0  0  0
  2 10  2  0  0  0  0
  3 23  2  0  0  0  0
  4 10  1  0  0  0  0
  4 13  1  0  0  0  0
  4 34  1  0  0  0  0
  5  9  1  0  0  0  0
  5 38  1  0  0  0  0
  5 39  1  0  0  0  0
  6 27  2  0  0  0  0
  6 28  1  0  0  0  0
  7  8  1  0  0  0  0
  7  9  1  0  0  0  0
  7 10  1  0  0  0  0
  7 29  1  0  0  0  0
  8 11  2  0  0  0  0
  8 12  1  0  0  0  0
  9 30  1  0  0  0  0
  9 31  1  0  0  0  0
 11 15  1  0  0  0  0
 11 32  1  0  0  0  0
 12 16  2  0  0  0  0
 12 33  1  0  0  0  0
 13 18  2  0  0  0  0
 13 21  1  0  0  0  0
 14 15  2  0  0  0  0
 14 16  1  0  0  0  0
 15 35  1  0  0  0  0
 16 36  1  0  0  0  0
 17 18  1  0  0  0  0
 17 20  2  0  0  0  0
 17 24  1  0  0  0  0
 18 37  1  0  0  0  0
 19 23  1  0  0  0  0
 19 25  1  0  0  0  0
 19 26  1  0  0  0  0
 19 40  1  0  0  0  0
 20 22  1  0  0  0  0
 20 27  1  0  0  0  0
 21 22  2  0  0  0  0
 21 41  1  0  0  0  0
 22 42  1  0  0  0  0
 24 28  2  0  0  0  0
 24 43  1  0  0  0  0
 25 44  1  0  0  0  0
 25 45  1  0  0  0  0
 25 46  1  0  0  0  0
 26 47  1  0  0  0  0
 26 48  1  0  0  0  0
 26 49  1  0  0  0  0
 27 50  1  0  0  0  0
 28 51  1  0  0  0  0
M  END
> <PUBCHEM_COMPOUND_CID>
127029119

> <PUBCHEM_CONFORMER_RMSD>
1

> <PUBCHEM_CONFORMER_DIVERSEORDER>
1
36
34
19
22
42
35
43
28
29
40
30
6
9
26
38
39
41
31
10
18
23
20
27
12
5
37
32
15
8
16
13
21
24
33
4
7
3
11
17
25
14
2

> <PUBCHEM_MMFF94_PARTIAL_CHARGES>
37
1 -0.23
10 0.57
11 -0.15
12 -0.15
13 0.12
14 0.08
15 -0.15
16 -0.15
18 -0.15
19 0.06
2 -0.57
21 -0.15
22 -0.15
23 0.66
24 -0.15
27 0.16
28 0.16
3 -0.57
32 0.15
33 0.15
34 0.37
35 0.15
36 0.15
37 0.15
38 0.36
39 0.36
4 -0.55
41 0.15
42 0.15
43 0.15
5 -0.99
50 0.15
51 0.15
6 -0.62
7 0.2
8 -0.14
9 0.27

> <PUBCHEM_EFFECTIVE_ROTOR_COUNT>
8

> <PUBCHEM_PHARMACOPHORE_FEATURES>
10
1 2 acceptor
1 3 acceptor
1 4 donor
1 5 cation
1 5 donor
1 6 acceptor
3 19 25 26 hydrophobe
6 13 17 18 20 21 22 rings
6 6 17 20 24 27 28 rings
6 8 11 12 14 15 16 rings

> <PUBCHEM_HEAVY_ATOM_COUNT>
28

> <PUBCHEM_ATOM_DEF_STEREO_COUNT>
0

> <PUBCHEM_ATOM_UDEF_STEREO_COUNT>
1

> <PUBCHEM_BOND_DEF_STEREO_COUNT>
0

> <PUBCHEM_BOND_UDEF_STEREO_COUNT>
0

> <PUBCHEM_ISOTOPIC_ATOM_COUNT>
0

> <PUBCHEM_COMPONENT_COUNT>
1

> <PUBCHEM_CACTVS_TAUTO_COUNT>
20

> <PUBCHEM_CONFORMER_ID>
07924F7F00000001

> <PUBCHEM_MMFF94_ENERGY>
82.0329

> <PUBCHEM_FEATURE_SELFOVERLAP>
50.773

> <PUBCHEM_SHAPE_FINGERPRINT>
10439779 11 18337102471164619128
105312 117 18411138077756506150
10556698 54 17767979631420523221
10675989 125 18124599669632512065
10864689 126 18340770343334558748
10937287 8 18338796719867358891
11135609 201 18411422808951138091
11720765 8 17626675903768055878
12107183 9 18261940866034519514
12422481 6 17240762818222379053
12633257 1 16226056608159150879
12717326 135 18198596974613772272
12988421 55 17821997723017694583
13103583 49 16226051136523679658
13383661 66 11386637474093302940
13944108 23 17909552752918412009
14251764 30 8862940584698310761
14251764 75 18198912409743774681
14429114 114 18122062010171701453
14849402 71 17975694991689505171
14950920 106 16081941484449827648
15163728 17 18337674122700494843
15198563 99 17983288524419103039
15513586 35 16808716539995267948
15803439 3 16988840587888596102
15980000 95 17259063991857268862
16120349 189 18334571343678023485
16120349 21 9079119994964322039
17980427 26 18266445521622886855
19304671 126 17774448152847625069
19438510 23 18261112941761687457
20691028 202 18409168805144574612
20775438 99 12318866173098098532
21033648 144 18130238150085797982
21033648 29 18335993011948999815
21307412 95 9655302489052845323
21401589 2 18186520982375458985
21585480 29 12614474340564928592
21585481 104 16199601164853421105
23522609 53 17459478930684384764
23569914 152 17270623269769453228
23569914 2 17199912817915468840
270888 7 18409446960253580685
2748736 6 18337100186089121429
2838139 119 18342731910120494494
3246875 12 18409169901225638251
3418910 222 17255407540501118120
376196 1 18341899545575341007
3862424 121 14044304537824763245
3918712 181 18339350890860648209
392239 28 15430038794025977676
393628 179 18200576086410859480
4144715 1 18047196538730071850
44249763 50 17845640577436856952
474113 269 11747236684026236273
4756326 101 15911606153299330098
508706 21 18198617933457382048
5219985 13 18409448059833708959
57724786 102 18187360991799921482
6327066 14 18408881832799206749
636775 72 18197212762478549480
6712543 237 14707214288613963401
7288768 16 18114183025631054963
7808743 9 18337109068038791394
7970288 3 9295289438960699217
8863177 126 8502365629284117952
9849439 229 18409444752677060579
9981440 41 18333736801795187659

> <PUBCHEM_SHAPE_MULTIPOLES>
543.68
17.3
5.22
1.44
5.29
2.31
0.07
-26.01
1.12
-6.18
-0.47
0.7
-0.12
1.78

> <PUBCHEM_SHAPE_SELFOVERLAP>
1167.72

> <PUBCHEM_SHAPE_VOLUME>
297.1

> <PUBCHEM_COORDINATE_TYPE>
2
5
10

$$$$
127031535
  -OEChem-05102415033D

 39 41  0     1  0  0  0  0  0999 V2000
    2.7547   -0.7067    2.6876 Cl  0  0  0  0  0  0  0  0  0  0  0  0
    5.3820   -3.2932   -1.2333 Cl  0  0  0  0  0  0  0  0  0  0  0  0
    0.6001    2.0215   -1.2772 O   0  0  0  0  0  0  0  0  0  0  0  0
   -0.2628    0.7071    0.4713 N   0  0  0  0  0  0  0  0  0  0  0  0
    4.0422    2.8250    1.1177 N   0  0  0  0  0  0  0  0  0  0  0  0
   -6.4462   -0.8865   -0.2422 N   0  0  0  0  0  0  0  0  0  0  0  0
    2.0690    1.4214    0.5471 C   0  0  1  0  0  0  0  0  0  0  0  0
    2.9039    0.2210    0.1292 C   0  0  0  0  0  0  0  0  0  0  0  0
    2.8036    2.7626    0.3459 C   0  0  0  0  0  0  0  0  0  0  0  0
    0.7320    1.4275   -0.2106 C   0  0  0  0  0  0  0  0  0  0  0  0
   -1.5892    0.4961    0.0924 C   0  0  0  0  0  0  0  0  0  0  0  0
    3.2529   -0.7796    1.0364 C   0  0  0  0  0  0  0  0  0  0  0  0
    3.3209    0.1344   -1.1992 C   0  0  0  0  0  0  0  0  0  0  0  0
   -3.7746   -0.4717    0.5437 C   0  0  0  0  0  0  0  0  0  0  0  0
   -2.4376   -0.2498    0.9124 C   0  0  0  0  0  0  0  0  0  0  0  0
   -4.2510    0.0698   -0.6681 C   0  0  0  0  0  0  0  0  0  0  0  0
   -2.0636    1.0294   -1.1038 C   0  0  0  0  0  0  0  0  0  0  0  0
    4.0191   -1.8665    0.6152 C   0  0  0  0  0  0  0  0  0  0  0  0
    4.0873   -0.9524   -1.6202 C   0  0  0  0  0  0  0  0  0  0  0  0
   -3.3885    0.8191   -1.4854 C   0  0  0  0  0  0  0  0  0  0  0  0
    4.4364   -1.9529   -0.7129 C   0  0  0  0  0  0  0  0  0  0  0  0
   -4.6498   -1.2149    1.3442 C   0  0  0  0  0  0  0  0  0  0  0  0
   -5.5854   -0.1714   -1.0011 C   0  0  0  0  0  0  0  0  0  0  0  0
   -5.9553   -1.3893    0.9107 C   0  0  0  0  0  0  0  0  0  0  0  0
    1.8166    1.3892    1.6120 H   0  0  0  0  0  0  0  0  0  0  0  0
    2.1506    3.5839    0.6649 H   0  0  0  0  0  0  0  0  0  0  0  0
    3.0340    2.9435   -0.7104 H   0  0  0  0  0  0  0  0  0  0  0  0
    0.0067    0.2736    1.3518 H   0  0  0  0  0  0  0  0  0  0  0  0
    3.0609    0.8987   -1.9260 H   0  0  0  0  0  0  0  0  0  0  0  0
   -2.0590   -0.6634    1.8459 H   0  0  0  0  0  0  0  0  0  0  0  0
   -1.4683    1.6141   -1.7907 H   0  0  0  0  0  0  0  0  0  0  0  0
    4.4884    3.7284    0.9640 H   0  0  0  0  0  0  0  0  0  0  0  0
    4.6995    2.1249    0.7770 H   0  0  0  0  0  0  0  0  0  0  0  0
   -3.7439    1.2416   -2.4225 H   0  0  0  0  0  0  0  0  0  0  0  0
    4.2923   -2.6478    1.3214 H   0  0  0  0  0  0  0  0  0  0  0  0
    4.4051   -1.0069   -2.6583 H   0  0  0  0  0  0  0  0  0  0  0  0
   -4.3278   -1.6506    2.2851 H   0  0  0  0  0  0  0  0  0  0  0  0
   -6.0158    0.2170   -1.9202 H   0  0  0  0  0  0  0  0  0  0  0  0
   -6.6635   -1.9592    1.5033 H   0  0  0  0  0  0  0  0  0  0  0  0
  1 12  1  0  0  0  0
  2 21  1  0  0  0  0
  3 10  2  0  0  0  0
  4 10  1  0  0  0  0
  4 11  1  0  0  0  0
  4 28  1  0  0  0  0
  5  9  1  0  0  0  0
  5 32  1  0  0  0  0
  5 33  1  0  0  0  0
  6 23  2  0  0  0  0
  6 24  1  0  0  0  0
  7  8  1  0  0  0  0
  7  9  1  0  0  0  0
  7 10  1  0  0  0  0
  7 25  1  0  0  0  0
  8 12  2  0  0  0  0
  8 13  1  0  0  0  0
  9 26  1  0  0  0  0
  9 27  1  0  0  0  0
 11 15  2  0  0  0  0
 11 17  1  0  0  0  0
 12 18  1  0  0  0  0
 13 19  2  0  0  0  0
 13 29  1  0  0  0  0
 14 15  1  0  0  0  0
 14 16  2  0  0  0  0
 14 22  1  0  0  0  0
 15 30  1  0  0  0  0
 16 20  1  0  0  0  0
 16 23  1  0  0  0  0
 17 20  2  0  0  0  0
 17 31  1  0  0  0  0
 18 21  2  0  0  0  0
 18 35  1  0  0  0  0
 19 21  1  0  0  0  0
 19 36  1  0  0  0  0
 20 34  1  0  0  0  0
 22 24  2  0  0  0  0
 22 37  1  0  0  0  0
 23 38  1  0  0  0  0
 24 39  1  0  0  0  0
M  END
> <PUBCHEM_COMPOUND_CID>
127031535

> <PUBCHEM_CONFORMER_RMSD>
0.8

> <PUBCHEM_CONFORMER_DIVERSEORDER>
1
17
55
49
5
37
45
12
35
59
56
32
62
52
51
19
9
25
42
4
21
15
27
14
41
33
3
53
50
48
16
30
54
6
11
2
10
31
36
57
46
29
13
40
26
43
38
8
22
39
47
18
7
44
60
61
20
58
24
63
28
34
23

> <PUBCHEM_MMFF94_PARTIAL_CHARGES>
34
1 -0.18
10 0.57
11 0.12
12 0.18
13 -0.15
15 -0.15
17 -0.15
18 -0.15
19 -0.15
2 -0.18
20 -0.15
21 0.18
22 -0.15
23 0.16
24 0.16
28 0.37
29 0.15
3 -0.57
30 0.15
31 0.15
32 0.36
33 0.36
34 0.15
35 0.15
36 0.15
37 0.15
38 0.15
39 0.15
4 -0.55
5 -0.99
6 -0.62
7 0.2
8 -0.14
9 0.27

> <PUBCHEM_EFFECTIVE_ROTOR_COUNT>
5

> <PUBCHEM_PHARMACOPHORE_FEATURES>
8
1 3 acceptor
1 4 donor
1 5 cation
1 5 donor
1 6 acceptor
6 11 14 15 16 17 20 rings
6 6 14 16 22 23 24 rings
6 8 12 13 18 19 21 rings

> <PUBCHEM_HEAVY_ATOM_COUNT>
24

> <PUBCHEM_ATOM_DEF_STEREO_COUNT>
0

> <PUBCHEM_ATOM_UDEF_STEREO_COUNT>
1

> <PUBCHEM_BOND_DEF_STEREO_COUNT>
0

> <PUBCHEM_BOND_UDEF_STEREO_COUNT>
0

> <PUBCHEM_ISOTOPIC_ATOM_COUNT>
0

> <PUBCHEM_COMPONENT_COUNT>
1

> <PUBCHEM_CACTVS_TAUTO_COUNT>
20

> <PUBCHEM_CONFORMER_ID>
079258EF00000001

> <PUBCHEM_MMFF94_ENERGY>
69.8424

> <PUBCHEM_FEATURE_SELFOVERLAP>
40.623

> <PUBCHEM_SHAPE_FINGERPRINT>
10319926 262 13470688135516390212
10369192 42 17899693750671061956
10498660 4 11314323732162257014
10928967 22 18186519891095765043
11128504 68 14707209916014735351
11595378 159 16773806904501387129
11796584 16 18041558040168637791
12107183 9 17842856433786193433
12616971 3 17346596379016098309
12633257 1 15339110226254760466
12925494 130 13684363841436650251
13103583 49 15554153775910082110
13533116 47 18201440311271016121
13617811 41 16370719366601527447
13782708 43 18339921623937849047
13914758 101 17846779565100788237
13955234 65 18059288872701280248
14251740 57 18411419539711080419
14251764 30 18270688545752836894
14341114 328 14620500234140878558
14347424 109 18131357405947058177
14528608 73 13551193303382006911
14910302 57 17749100106654539159
15183329 4 17822007572015527413
15575132 122 13623521334816479239
15664445 248 16950569938538190796
17349148 13 17918000485943928807
17844677 252 18413390934490907265
17909252 39 18114175294431147922
1813 80 17845946121832274876
193927 3 18412266099218586538
20369508 70 18335696139957612272
20645477 70 18410007758306963480
20693207 138 18040992929878328301
20715895 44 12463304548683536307
20775438 99 18263916816698811898
21033650 10 16516248422728997332
21279426 13 18187635878866597005
21682296 61 18341337704240070031
21792934 111 13973420019872419075
22061861 79 18408321099354780927
2215653 11 18186796985711651063
22393880 68 17967810513891130031
2303208 19 18113624517000689939
23559900 14 17894916247581554837
239999 70 18260265295859336016
2838139 119 13262693538513543766
3004659 81 16660635220547165874
312423 11 18342749502312301081
3298306 158 18187074015213198115
3421961 26 18342459240370085504
3472631 163 11314608531407062714
34797466 226 17458634466329010837
46194498 28 18040439910305955868
465052 167 18343871004272567374
474 4 11098150967307483310
5104073 3 18261384542972971249
543368 44 12612763427895144895
6823239 73 18186516614035088040
7970288 3 18270403772104339766
960060 61 16950283987830750690

> <PUBCHEM_SHAPE_MULTIPOLES>
476.84
14.6
2.69
1.77
14.23
0.36
-0.52
-9.8
1.49
-4.93
0.16
-1.02
-0.36
2.38

> <PUBCHEM_SHAPE_SELFOVERLAP>
1019.344

> <PUBCHEM_SHAPE_VOLUME>
264.8

> <PUBCHEM_COORDINATE_TYPE>
2
5
10

$$$$
127031536
  -OEChem-05102415033D

 42 44  0     1  0  0  0  0  0999 V2000
   -0.9318   -2.1304    0.7938 O   0  0  0  0  0  0  0  0  0  0  0  0
   -0.0267   -0.4335   -0.5592 N   0  0  0  0  0  0  0  0  0  0  0  0
   -4.4937   -2.0141   -1.5733 N   0  0  0  0  0  0  0  0  0  0  0  0
    6.2659    0.5394    0.3005 N   0  0  0  0  0  0  0  0  0  0  0  0
   -2.4021   -0.9636   -0.7302 C   0  0  2  0  0  0  0  0  0  0  0  0
   -3.1252    0.1354    0.0328 C   0  0  0  0  0  0  0  0  0  0  0  0
   -3.2412   -2.2513   -0.8602 C   0  0  0  0  0  0  0  0  0  0  0  0
   -1.0479   -1.2641   -0.0686 C   0  0  0  0  0  0  0  0  0  0  0  0
   -3.4123    1.3592   -0.5717 C   0  0  0  0  0  0  0  0  0  0  0  0
   -3.5020   -0.0943    1.3559 C   0  0  0  0  0  0  0  0  0  0  0  0
    1.3208   -0.4159   -0.1971 C   0  0  0  0  0  0  0  0  0  0  0  0
   -4.0765    2.3532    0.1469 C   0  0  0  0  0  0  0  0  0  0  0  0
   -3.0188    1.6283   -1.9870 C   0  0  0  0  0  0  0  0  0  0  0  0
   -4.1662    0.8997    2.0747 C   0  0  0  0  0  0  0  0  0  0  0  0
    3.5506    0.5239   -0.4439 C   0  0  0  0  0  0  0  0  0  0  0  0
    2.1917    0.4953   -0.7971 C   0  0  0  0  0  0  0  0  0  0  0  0
   -4.4535    2.1236    1.4701 C   0  0  0  0  0  0  0  0  0  0  0  0
    4.0263   -0.3815    0.5270 C   0  0  0  0  0  0  0  0  0  0  0  0
    1.7946   -1.3086    0.7615 C   0  0  0  0  0  0  0  0  0  0  0  0
    3.1412   -1.2940    1.1246 C   0  0  0  0  0  0  0  0  0  0  0  0
    4.4485    1.4255   -1.0271 C   0  0  0  0  0  0  0  0  0  0  0  0
    5.3830   -0.3233    0.8524 C   0  0  0  0  0  0  0  0  0  0  0  0
    5.7749    1.3911   -0.6248 C   0  0  0  0  0  0  0  0  0  0  0  0
   -2.1762   -0.6557   -1.7571 H   0  0  0  0  0  0  0  0  0  0  0  0
   -2.6628   -3.0107   -1.4005 H   0  0  0  0  0  0  0  0  0  0  0  0
   -3.4729   -2.6790    0.1218 H   0  0  0  0  0  0  0  0  0  0  0  0
   -3.2873   -1.0381    1.8492 H   0  0  0  0  0  0  0  0  0  0  0  0
   -0.2886    0.2484   -1.2669 H   0  0  0  0  0  0  0  0  0  0  0  0
   -4.3080    3.3125   -0.3083 H   0  0  0  0  0  0  0  0  0  0  0  0
   -1.9317    1.5939   -2.1059 H   0  0  0  0  0  0  0  0  0  0  0  0
   -3.4949    0.9159   -2.6685 H   0  0  0  0  0  0  0  0  0  0  0  0
   -3.3378    2.6271   -2.3069 H   0  0  0  0  0  0  0  0  0  0  0  0
   -4.4592    0.7212    3.1051 H   0  0  0  0  0  0  0  0  0  0  0  0
    1.8134    1.1899   -1.5457 H   0  0  0  0  0  0  0  0  0  0  0  0
   -4.9811   -2.8996   -1.7031 H   0  0  0  0  0  0  0  0  0  0  0  0
   -4.2935   -1.6578   -2.5069 H   0  0  0  0  0  0  0  0  0  0  0  0
   -4.9704    2.8975    2.0299 H   0  0  0  0  0  0  0  0  0  0  0  0
    1.1839   -2.0428    1.2675 H   0  0  0  0  0  0  0  0  0  0  0  0
    3.4960   -1.9976    1.8744 H   0  0  0  0  0  0  0  0  0  0  0  0
    4.1279    2.1407   -1.7785 H   0  0  0  0  0  0  0  0  0  0  0  0
    5.8141   -0.9923    1.5922 H   0  0  0  0  0  0  0  0  0  0  0  0
    6.5010    2.0739   -1.0538 H   0  0  0  0  0  0  0  0  0  0  0  0
  1  8  2  0  0  0  0
  2  8  1  0  0  0  0
  2 11  1  0  0  0  0
  2 28  1  0  0  0  0
  3  7  1  0  0  0  0
  3 35  1  0  0  0  0
  3 36  1  0  0  0  0
  4 22  2  0  0  0  0
  4 23  1  0  0  0  0
  5  6  1  0  0  0  0
  5  7  1  0  0  0  0
  5  8  1  0  0  0  0
  5 24  1  0  0  0  0
  6  9  1  0  0  0  0
  6 10  2  0  0  0  0
  7 25  1  0  0  0  0
  7 26  1  0  0  0  0
  9 12  2  0  0  0  0
  9 13  1  0  0  0  0
 10 14  1  0  0  0  0
 10 27  1  0  0  0  0
 11 16  2  0  0  0  0
 11 19  1  0  0  0  0
 12 17  1  0  0  0  0
 12 29  1  0  0  0  0
 13 30  1  0  0  0  0
 13 31  1  0  0  0  0
 13 32  1  0  0  0  0
 14 17  2  0  0  0  0
 14 33  1  0  0  0  0
 15 16  1  0  0  0  0
 15 18  2  0  0  0  0
 15 21  1  0  0  0  0
 16 34  1  0  0  0  0
 17 37  1  0  0  0  0
 18 20  1  0  0  0  0
 18 22  1  0  0  0  0
 19 20  2  0  0  0  0
 19 38  1  0  0  0  0
 20 39  1  0  0  0  0
 21 23  2  0  0  0  0
 21 40  1  0  0  0  0
 22 41  1  0  0  0  0
 23 42  1  0  0  0  0
M  END
> <PUBCHEM_COMPOUND_CID>
127031536

> <PUBCHEM_CONFORMER_RMSD>
0.8

> <PUBCHEM_CONFORMER_DIVERSEORDER>
3
33
26
35
47
9
17
28
39
49
31
13
46
44
36
41
15
24
29
14
42
23
16
25
50
1
10
6
20
11
48
2
18
34
21
19
4
30
8
22
43
32
27
12
37
7
38
5
45
40

> <PUBCHEM_MMFF94_PARTIAL_CHARGES>
34
1 -0.57
10 -0.15
11 0.12
12 -0.15
13 0.14
14 -0.15
16 -0.15
17 -0.15
19 -0.15
2 -0.55
20 -0.15
21 -0.15
22 0.16
23 0.16
27 0.15
28 0.37
29 0.15
3 -0.99
33 0.15
34 0.15
35 0.36
36 0.36
37 0.15
38 0.15
39 0.15
4 -0.62
40 0.15
41 0.15
42 0.15
5 0.2
6 -0.14
7 0.27
8 0.57
9 -0.14

> <PUBCHEM_EFFECTIVE_ROTOR_COUNT>
5

> <PUBCHEM_PHARMACOPHORE_FEATURES>
8
1 1 acceptor
1 2 donor
1 3 cation
1 3 donor
1 4 acceptor
6 11 15 16 18 19 20 rings
6 4 15 18 21 22 23 rings
6 6 9 10 12 14 17 rings

> <PUBCHEM_HEAVY_ATOM_COUNT>
23

> <PUBCHEM_ATOM_DEF_STEREO_COUNT>
0

> <PUBCHEM_ATOM_UDEF_STEREO_COUNT>
1

> <PUBCHEM_BOND_DEF_STEREO_COUNT>
0

> <PUBCHEM_BOND_UDEF_STEREO_COUNT>
0

> <PUBCHEM_ISOTOPIC_ATOM_COUNT>
0

> <PUBCHEM_COMPONENT_COUNT>
1

> <PUBCHEM_CACTVS_TAUTO_COUNT>
102

> <PUBCHEM_CONFORMER_ID>
079258F000000003

> <PUBCHEM_MMFF94_ENERGY>
70.0474

> <PUBCHEM_FEATURE_SELFOVERLAP>
40.623

> <PUBCHEM_SHAPE_FINGERPRINT>
10291535 26 16988848263258819555
105312 117 17346882247343426372
10912923 1 18335977640793979346
11056379 131 17916865841310150807
11089746 13 17774992489155882696
11101153 10 18126283292464835269
11370993 144 16805878464328983889
12107183 9 18048869694036356258
12236239 1 18408599283875073558
12403259 415 16343701071155601410
12596602 18 17530692012647947817
12616971 3 18259987063640676696
12788726 201 18270668896388591103
12892183 10 16950569830957779315
13583140 156 17241042111408398197
13675066 3 17531249405045179382
13782708 43 11674863504270439248
14068700 675 18057028319817878183
14251764 38 17985822859886929720
14251764 75 16982954705083992121
15183329 4 14117521991479239104
15209294 21 18408606950296465556
15788980 27 18333730208882620378
15880784 105 12613048200815810796
1601671 61 18344148086157019240
17349148 13 8646765616873363208
17844677 252 17632013164999623346
21033650 10 18128562460136665260
21065199 12 17313108497122951489
22393880 68 14189282730035703436
2303208 19 14707205492651997650
23557571 272 17632583781163881735
341906 21 18060129938597416250
46194498 28 16486123075854329640
497634 4 18411694422276781263
5104073 3 18113895001124279640
5219985 9 18056191617587870375
57724786 102 18124320398031643649
7226269 152 18272090474775965152
7808743 9 18201725007420802161
90127 26 17749951059792562038
9849439 229 17699298663973241625

> <PUBCHEM_SHAPE_MULTIPOLES>
452.52
13.8
2.32
1.59
13.44
0.11
-0.12
-5.61
-1.46
-2.65
0.33
-1.92
-0.25
-2.18

> <PUBCHEM_SHAPE_SELFOVERLAP>
983.769

> <PUBCHEM_SHAPE_VOLUME>
245.3

> <PUBCHEM_COORDINATE_TYPE>
2
5
10

$$$$
127028824
  -OEChem-05102415033D

 45 48  0     1  0  0  0  0  0999 V2000
    0.1393    2.6953    1.2085 O   0  0  0  0  0  0  0  0  0  0  0  0
    0.6630    1.1376   -0.4671 N   0  0  0  0  0  0  0  0  0  0  0  0
   -3.4963    3.7275   -0.5880 N   0  0  0  0  0  0  0  0  0  0  0  0
    6.5054   -1.5015    0.1890 N   0  0  0  0  0  0  0  0  0  0  0  0
   -1.4952    2.2443   -0.5318 C   0  0  1  0  0  0  0  0  0  0  0  0
   -2.2677    0.9691   -0.5740 C   0  0  0  0  0  0  0  0  0  0  0  0
   -2.2600    3.4250    0.1286 C   0  0  0  0  0  0  0  0  0  0  0  0
   -0.1434    2.0586    0.1974 C   0  0  0  0  0  0  0  0  0  0  0  0
   -2.6933    0.3722    0.6131 C   0  0  0  0  0  0  0  0  0  0  0  0
   -3.4207   -0.8289    0.5906 C   0  0  0  0  0  0  0  0  0  0  0  0
   -2.5628    0.3748   -1.7974 C   0  0  0  0  0  0  0  0  0  0  0  0
   -3.7206   -1.4332   -0.6535 C   0  0  0  0  0  0  0  0  0  0  0  0
   -3.2843   -0.8186   -1.8385 C   0  0  0  0  0  0  0  0  0  0  0  0
    1.9622    0.7088   -0.1058 C   0  0  0  0  0  0  0  0  0  0  0  0
   -3.8568   -1.4437    1.7755 C   0  0  0  0  0  0  0  0  0  0  0  0
   -4.4477   -2.6345   -0.6760 C   0  0  0  0  0  0  0  0  0  0  0  0
    2.6328   -0.2253   -0.8973 C   0  0  0  0  0  0  0  0  0  0  0  0
    3.9221   -0.6612   -0.5507 C   0  0  0  0  0  0  0  0  0  0  0  0
    4.5329   -0.1425    0.6096 C   0  0  0  0  0  0  0  0  0  0  0  0
    2.5689    1.2189    1.0396 C   0  0  0  0  0  0  0  0  0  0  0  0
   -4.5783   -2.6371    1.7345 C   0  0  0  0  0  0  0  0  0  0  0  0
   -4.8731   -3.2314    0.5112 C   0  0  0  0  0  0  0  0  0  0  0  0
    3.8490    0.7972    1.3986 C   0  0  0  0  0  0  0  0  0  0  0  0
    4.6202   -1.5963   -1.3236 C   0  0  0  0  0  0  0  0  0  0  0  0
    5.8149   -0.5992    0.9221 C   0  0  0  0  0  0  0  0  0  0  0  0
    5.8895   -1.9761   -0.9147 C   0  0  0  0  0  0  0  0  0  0  0  0
   -1.2399    2.5585   -1.5550 H   0  0  0  0  0  0  0  0  0  0  0  0
   -2.4962    3.2119    1.1777 H   0  0  0  0  0  0  0  0  0  0  0  0
   -1.6287    4.3214    0.1200 H   0  0  0  0  0  0  0  0  0  0  0  0
   -2.4567    0.8360    1.5691 H   0  0  0  0  0  0  0  0  0  0  0  0
   -2.2380    0.8269   -2.7308 H   0  0  0  0  0  0  0  0  0  0  0  0
   -3.5034   -1.2655   -2.8060 H   0  0  0  0  0  0  0  0  0  0  0  0
    0.2969    0.7175   -1.3184 H   0  0  0  0  0  0  0  0  0  0  0  0
   -3.6377   -0.9971    2.7432 H   0  0  0  0  0  0  0  0  0  0  0  0
   -4.6895   -3.1168   -1.6208 H   0  0  0  0  0  0  0  0  0  0  0  0
    2.1507   -0.6190   -1.7908 H   0  0  0  0  0  0  0  0  0  0  0  0
   -3.9687    4.5054   -0.1292 H   0  0  0  0  0  0  0  0  0  0  0  0
   -4.1346    2.9354   -0.5280 H   0  0  0  0  0  0  0  0  0  0  0  0
    2.1126    1.9400    1.7027 H   0  0  0  0  0  0  0  0  0  0  0  0
   -4.9097   -3.1022    2.6583 H   0  0  0  0  0  0  0  0  0  0  0  0
    4.3091    1.2042    2.2963 H   0  0  0  0  0  0  0  0  0  0  0  0
   -5.4348   -4.1606    0.4800 H   0  0  0  0  0  0  0  0  0  0  0  0
    4.1902   -2.0227   -2.2248 H   0  0  0  0  0  0  0  0  0  0  0  0
    6.3422   -0.2401    1.8017 H   0  0  0  0  0  0  0  0  0  0  0  0
    6.4621   -2.6985   -1.4873 H   0  0  0  0  0  0  0  0  0  0  0  0
  1  8  2  0  0  0  0
  2  8  1  0  0  0  0
  2 14  1  0  0  0  0
  2 33  1  0  0  0  0
  3  7  1  0  0  0  0
  3 37  1  0  0  0  0
  3 38  1  0  0  0  0
  4 25  2  0  0  0  0
  4 26  1  0  0  0  0
  5  6  1  0  0  0  0
  5  7  1  0  0  0  0
  5  8  1  0  0  0  0
  5 27  1  0  0  0  0
  6  9  2  0  0  0  0
  6 11  1  0  0  0  0
  7 28  1  0  0  0  0
  7 29  1  0  0  0  0
  9 10  1  0  0  0  0
  9 30  1  0  0  0  0
 10 12  1  0  0  0  0
 10 15  2  0  0  0  0
 11 13  2  0  0  0  0
 11 31  1  0  0  0  0
 12 13  1  0  0  0  0
 12 16  2  0  0  0  0
 13 32  1  0  0  0  0
 14 17  2  0  0  0  0
 14 20  1  0  0  0  0
 15 21  1  0  0  0  0
 15 34  1  0  0  0  0
 16 22  1  0  0  0  0
 16 35  1  0  0  0  0
 17 18  1  0  0  0  0
 17 36  1  0  0  0  0
 18 19  2  0  0  0  0
 18 24  1  0  0  0  0
 19 23  1  0  0  0  0
 19 25  1  0  0  0  0
 20 23  2  0  0  0  0
 20 39  1  0  0  0  0
 21 22  2  0  0  0  0
 21 40  1  0  0  0  0
 22 42  1  0  0  0  0
 23 41  1  0  0  0  0
 24 26  2  0  0  0  0
 24 43  1  0  0  0  0
 25 44  1  0  0  0  0
 26 45  1  0  0  0  0
M  END
> <PUBCHEM_COMPOUND_CID>
127028824

> <PUBCHEM_CONFORMER_RMSD>
0.8

> <PUBCHEM_CONFORMER_DIVERSEORDER>
1
95
79
94
9
111
86
31
46
96
75
26
103
73
42
28
104
107
84
91
6
34
88
101
15
29
113
37
83
97
108
38
71
7
24
22
72
30
100
57
52
5
60
59
13
90
10
110
109
81
92
36
20
65
27
3
63
23
40
68
106
78
53
17
51
77
35
61
99
112
69
47
49
93
4
55
66
58
2
8
89
48
76
85
18
70
14
67
80
64
102
105
98
62
32
39
56
16
82
43
33
87
74
21
19
25
45
50
11
54
41
44
12

> <PUBCHEM_MMFF94_PARTIAL_CHARGES>
38
1 -0.57
11 -0.15
13 -0.15
14 0.12
15 -0.15
16 -0.15
17 -0.15
2 -0.55
20 -0.15
21 -0.15
22 -0.15
23 -0.15
24 -0.15
25 0.16
26 0.16
3 -0.99
30 0.15
31 0.15
32 0.15
33 0.37
34 0.15
35 0.15
36 0.15
37 0.36
38 0.36
39 0.15
4 -0.62
40 0.15
41 0.15
42 0.15
43 0.15
44 0.15
45 0.15
5 0.2
6 -0.14
7 0.27
8 0.57
9 -0.15

> <PUBCHEM_EFFECTIVE_ROTOR_COUNT>
5

> <PUBCHEM_PHARMACOPHORE_FEATURES>
9
1 1 acceptor
1 2 donor
1 3 cation
1 3 donor
1 4 acceptor
6 10 12 15 16 21 22 rings
6 14 17 18 19 20 23 rings
6 4 18 19 24 25 26 rings
6 6 9 10 11 12 13 rings

> <PUBCHEM_HEAVY_ATOM_COUNT>
26

> <PUBCHEM_ATOM_DEF_STEREO_COUNT>
0

> <PUBCHEM_ATOM_UDEF_STEREO_COUNT>
1

> <PUBCHEM_BOND_DEF_STEREO_COUNT>
0

> <PUBCHEM_BOND_UDEF_STEREO_COUNT>
0

> <PUBCHEM_ISOTOPIC_ATOM_COUNT>
0

> <PUBCHEM_COMPONENT_COUNT>
1

> <PUBCHEM_CACTVS_TAUTO_COUNT>
48

> <PUBCHEM_CONFORMER_ID>
07924E5800000001

> <PUBCHEM_MMFF94_ENERGY>
80.7465

> <PUBCHEM_FEATURE_SELFOVERLAP>
45.725

> <PUBCHEM_SHAPE_FINGERPRINT>
107951 10 18120091672359407549
10928967 22 18131918165277579566
11135609 12 18412266138174206648
11370993 144 17202772483906320684
11545043 162 18341327808608467960
11796584 16 18193275183768831610
11809386 21 18260542282257566906
11991303 11 18041559114797068989
12363563 72 18262802998660494889
12422481 6 17560534944517083551
12633257 1 15482394243606139651
12760667 363 18334857247198766363
13103583 49 17203058459850651643
13544653 18 18341330075871516020
13782708 43 18341894048992810170
14341114 328 15554171492138390578
14844126 61 18341887468400779519
14866123 147 18410015399818505545
14950920 106 16343699988533945978
15361156 5 18413105073877899157
15513586 35 13541312065050040971
16120349 189 11743850135712605939
17780758 139 17846785091589438699
1813 80 18196665196891448509
18927931 339 18341612594583100910
193927 3 18335704965899043182
20691028 202 9006790816416412431
21133410 58 17907560773658685127
221490 88 18273209782087245552
23559900 14 18128804267007089136
312425 83 14418949801109052931
329604 57 18334298703744361654
3383291 50 18341607093494937455
3862424 121 15721944954284499227
4015057 19 17630579294057788825
4073 2 18340484449099237704
437815 12 18335978779345252807
44062 13 18337391543479248217
4408954 64 17318215849821640441
463206 1 18043812202610637827
474113 269 17916584397200408839
484985 159 18333731295783912907
4921388 177 18262235512831797117
497634 4 15213889028842880665
508706 21 18339640044889951726
5104073 3 18131061598833084632
5309563 4 18338234981042051979
5486654 36 18413112753564091905
56633871 153 18128256881909920079
57724786 102 10807398306954570774
59755656 520 18122339078390433109
613672 6 18192131897301507995
6431902 208 18410853253043168062
7918774 8 18336834194184448938
7970288 3 18337955721989144715

> <PUBCHEM_SHAPE_MULTIPOLES>
514.26
14.28
3.81
1.59
16.01
1.92
0.02
-13.28
1.17
-5.32
0.27
-0.8
-0.5
2.25

> <PUBCHEM_SHAPE_SELFOVERLAP>
1141.664

> <PUBCHEM_SHAPE_VOLUME>
273

> <PUBCHEM_COORDINATE_TYPE>
2
5
10

$$$$
127031252
  -OEChem-05102415033D

 39 41  0     1  0  0  0  0  0999 V2000
    4.8748   -2.0120   -2.4191 Cl  0  0  0  0  0  0  0  0  0  0  0  0
    0.9036    1.6283   -1.3743 O   0  0  0  0  0  0  0  0  0  0  0  0
   -0.1155    0.7063    0.5339 N   0  0  0  0  0  0  0  0  0  0  0  0
    4.2523    2.7336    1.0327 N   0  0  0  0  0  0  0  0  0  0  0  0
   -6.3264   -0.7438   -0.2435 N   0  0  0  0  0  0  0  0  0  0  0  0
    2.2426    1.3276    0.6163 C   0  0  1  0  0  0  0  0  0  0  0  0
    3.0358    0.0370    0.4827 C   0  0  0  0  0  0  0  0  0  0  0  0
    3.0542    2.5754    0.2122 C   0  0  0  0  0  0  0  0  0  0  0  0
    0.9491    1.2432   -0.2092 C   0  0  0  0  0  0  0  0  0  0  0  0
   -1.4293    0.4807    0.1212 C   0  0  0  0  0  0  0  0  0  0  0  0
    3.5337   -0.3502   -0.7615 C   0  0  0  0  0  0  0  0  0  0  0  0
    3.2663   -0.7592    1.6047 C   0  0  0  0  0  0  0  0  0  0  0  0
   -3.6818   -0.2949    0.6120 C   0  0  0  0  0  0  0  0  0  0  0  0
   -2.3564   -0.0609    1.0133 C   0  0  0  0  0  0  0  0  0  0  0  0
   -4.0660    0.0250   -0.7066 C   0  0  0  0  0  0  0  0  0  0  0  0
   -1.8127    0.7953   -1.1805 C   0  0  0  0  0  0  0  0  0  0  0  0
   -3.1249    0.5697   -1.5958 C   0  0  0  0  0  0  0  0  0  0  0  0
    4.2621   -1.5335   -0.8838 C   0  0  0  0  0  0  0  0  0  0  0  0
    3.9946   -1.9426    1.4825 C   0  0  0  0  0  0  0  0  0  0  0  0
    4.4926   -2.3297    0.2382 C   0  0  0  0  0  0  0  0  0  0  0  0
   -4.6345   -0.8364    1.4828 C   0  0  0  0  0  0  0  0  0  0  0  0
   -5.3918   -0.2213   -1.0692 C   0  0  0  0  0  0  0  0  0  0  0  0
   -5.9227   -1.0374    1.0110 C   0  0  0  0  0  0  0  0  0  0  0  0
    1.9557    1.4625    1.6692 H   0  0  0  0  0  0  0  0  0  0  0  0
    3.3489    2.5396   -0.8431 H   0  0  0  0  0  0  0  0  0  0  0  0
    2.4282    3.4678    0.3311 H   0  0  0  0  0  0  0  0  0  0  0  0
    0.0850    0.4383    1.4950 H   0  0  0  0  0  0  0  0  0  0  0  0
    3.3564    0.2645   -1.6405 H   0  0  0  0  0  0  0  0  0  0  0  0
    2.8846   -0.4710    2.5804 H   0  0  0  0  0  0  0  0  0  0  0  0
   -2.0487   -0.3043    2.0292 H   0  0  0  0  0  0  0  0  0  0  0  0
   -1.1533    1.2142   -1.9273 H   0  0  0  0  0  0  0  0  0  0  0  0
    4.7522    3.5719    0.7388 H   0  0  0  0  0  0  0  0  0  0  0  0
    4.8895    1.9550    0.8710 H   0  0  0  0  0  0  0  0  0  0  0  0
   -3.4088    0.8202   -2.6156 H   0  0  0  0  0  0  0  0  0  0  0  0
    4.1739   -2.5626    2.3559 H   0  0  0  0  0  0  0  0  0  0  0  0
    5.0583   -3.2544    0.1580 H   0  0  0  0  0  0  0  0  0  0  0  0
   -4.3847   -1.0978    2.5066 H   0  0  0  0  0  0  0  0  0  0  0  0
   -5.7532    0.0021   -2.0693 H   0  0  0  0  0  0  0  0  0  0  0  0
   -6.6891   -1.4553    1.6557 H   0  0  0  0  0  0  0  0  0  0  0  0
  1 18  1  0  0  0  0
  2  9  2  0  0  0  0
  3  9  1  0  0  0  0
  3 10  1  0  0  0  0
  3 27  1  0  0  0  0
  4  8  1  0  0  0  0
  4 32  1  0  0  0  0
  4 33  1  0  0  0  0
  5 22  2  0  0  0  0
  5 23  1  0  0  0  0
  6  7  1  0  0  0  0
  6  8  1  0  0  0  0
  6  9  1  0  0  0  0
  6 24  1  0  0  0  0
  7 11  2  0  0  0  0
  7 12  1  0  0  0  0
  8 25  1  0  0  0  0
  8 26  1  0  0  0  0
 10 14  2  0  0  0  0
 10 16  1  0  0  0  0
 11 18  1  0  0  0  0
 11 28  1  0  0  0  0
 12 19  2  0  0  0  0
 12 29  1  0  0  0  0
 13 14  1  0  0  0  0
 13 15  2  0  0  0  0
 13 21  1  0  0  0  0
 14 30  1  0  0  0  0
 15 17  1  0  0  0  0
 15 22  1  0  0  0  0
 16 17  2  0  0  0  0
 16 31  1  0  0  0  0
 17 34  1  0  0  0  0
 18 20  2  0  0  0  0
 19 20  1  0  0  0  0
 19 35  1  0  0  0  0
 20 36  1  0  0  0  0
 21 23  2  0  0  0  0
 21 37  1  0  0  0  0
 22 38  1  0  0  0  0
 23 39  1  0  0  0  0
M  END
> <PUBCHEM_COMPOUND_CID>
127031252

> <PUBCHEM_CONFORMER_RMSD>
0.8

> <PUBCHEM_CONFORMER_DIVERSEORDER>
1
103
26
80
44
46
38
83
82
84
13
72
62
104
68
54
102
23
22
91
74
52
59
7
45
42
73
34
67
63
75
16
87
66
92
88
48
28
3
85
18
79
71
58
5
90
89
98
64
101
12
32
24
10
100
53
14
6
61
40
33
15
11
77
37
49
21
8
70
97
51
17
96
4
9
47
95
60
86
78
65
29
41
69
81
56
99
20
39
94
76
36
43
93
35
57
50
25
31
55
27
2
30
19

> <PUBCHEM_MMFF94_PARTIAL_CHARGES>
34
1 -0.18
10 0.12
11 -0.15
12 -0.15
14 -0.15
16 -0.15
17 -0.15
18 0.18
19 -0.15
2 -0.57
20 -0.15
21 -0.15
22 0.16
23 0.16
27 0.37
28 0.15
29 0.15
3 -0.55
30 0.15
31 0.15
32 0.36
33 0.36
34 0.15
35 0.15
36 0.15
37 0.15
38 0.15
39 0.15
4 -0.99
5 -0.62
6 0.2
7 -0.14
8 0.27
9 0.57

> <PUBCHEM_EFFECTIVE_ROTOR_COUNT>
5

> <PUBCHEM_PHARMACOPHORE_FEATURES>
8
1 2 acceptor
1 3 donor
1 4 cation
1 4 donor
1 5 acceptor
6 10 13 14 15 16 17 rings
6 5 13 15 21 22 23 rings
6 7 11 12 18 19 20 rings

> <PUBCHEM_HEAVY_ATOM_COUNT>
23

> <PUBCHEM_ATOM_DEF_STEREO_COUNT>
0

> <PUBCHEM_ATOM_UDEF_STEREO_COUNT>
1

> <PUBCHEM_BOND_DEF_STEREO_COUNT>
0

> <PUBCHEM_BOND_UDEF_STEREO_COUNT>
0

> <PUBCHEM_ISOTOPIC_ATOM_COUNT>
0

> <PUBCHEM_COMPONENT_COUNT>
1

> <PUBCHEM_CACTVS_TAUTO_COUNT>
34

> <PUBCHEM_CONFORMER_ID>
079257D400000001

> <PUBCHEM_MMFF94_ENERGY>
65.9196

> <PUBCHEM_FEATURE_SELFOVERLAP>
40.623

> <PUBCHEM_SHAPE_FINGERPRINT>
10319926 262 14189582905215358670
10369192 42 17825105072355082988
10498660 4 11891348533935952310
10912923 1 17417812893977368001
10928967 22 18261110746796638971
11059845 2 15622877543107616234
11595378 159 16917356930594331937
11954058 11 17704080555889732222
12107183 9 17486514610717703081
12422481 6 17345765083875109141
12616971 3 17775563148343316205
12670546 177 15719397208930850799
12778500 126 15410342039584064458
13073987 5 18413109489795239481
13533116 47 18130788988236154393
13782708 43 18338233882184474123
13914758 101 17988921121172653581
13955234 65 18270675484931148904
14211702 104 18266461104386650167
14251740 57 18272374199745670382
14251758 9 17988364746202317217
14251764 30 18128829538536701982
14341114 176 14908179716660612926
14366163 111 13767931204133370470
14528608 73 13118285871411515611
14910302 57 17313374626403202319
15142526 21 16911417566497872664
15183329 4 17603582981334599775
15575132 122 13118273747283731703
15664445 248 16081378500479410900
17349148 13 18060143141469444991
17844677 252 18409446973296933057
1813 80 18129948871469554012
18222031 100 18272652307784324278
193927 3 18341616975375830862
20369508 70 18334569127796606474
20645477 70 18411415124764021520
20693207 138 17967529060410354988
21033650 10 15647608926733449532
21279426 13 17968645044118906717
21344244 78 17632286870270051296
22061861 79 18334009497853060671
2215653 11 17967525771193445439
22224240 67 18194109940706904040
2303208 19 17967819366625790555
23081809 10 17346883377711154433
23559900 14 17312826004428837333
239999 70 18334295405272937544
312423 11 18342749498075336608
3421961 26 18408036304268091248
345986 75 18059852809948242024
3472631 163 12829788344094230878
34797466 226 17458914841794178053
3680242 22 14476967783033315339
44317340 157 8430319056533087773
465052 167 18411984645880658630
5104073 3 18409162191174507505
543368 44 13118294693612068991
57359948 33 16950551177809409246
6823239 73 17822010930168535744
7808743 9 11742396659008799818
7970288 3 18270403759356659350
8863177 126 18261117412812463067
960060 61 17313108531583098286
9841814 1 18411694358231949672

> <PUBCHEM_SHAPE_MULTIPOLES>
454.39
14.6
2.32
1.78
12.7
0.79
0.45
-7.71
0.32
-4.65
-0.14
-0.89
-0.65
1.71

> <PUBCHEM_SHAPE_SELFOVERLAP>
979.296

> <PUBCHEM_SHAPE_VOLUME>
249.1

> <PUBCHEM_COORDINATE_TYPE>
2
5
10

$$$$
127026938
  -OEChem-05102415033D

 43 45  0     1  0  0  0  0  0999 V2000
    0.4524   -1.9311   -1.4289 O   0  0  0  0  0  0  0  0  0  0  0  0
    5.1985    2.7981   -0.0358 O   0  0  0  0  0  0  0  0  0  0  0  0
   -0.4335   -0.8932    0.4860 N   0  0  0  0  0  0  0  0  0  0  0  0
    3.7381   -3.3176    0.9346 N   0  0  0  0  0  0  0  0  0  0  0  0
   -6.4844    1.1572   -0.1958 N   0  0  0  0  0  0  0  0  0  0  0  0
    1.8522   -1.7454    0.5337 C   0  0  2  0  0  0  0  0  0  0  0  0
    2.7492   -0.5268    0.3812 C   0  0  0  0  0  0  0  0  0  0  0  0
    2.5522   -3.0569    0.1226 C   0  0  0  0  0  0  0  0  0  0  0  0
    0.5543   -1.5505   -0.2660 C   0  0  0  0  0  0  0  0  0  0  0  0
    3.2535   -0.1851   -0.8735 C   0  0  0  0  0  0  0  0  0  0  0  0
    3.0678    0.2491    1.4959 C   0  0  0  0  0  0  0  0  0  0  0  0
   -1.7277   -0.5464    0.0960 C   0  0  0  0  0  0  0  0  0  0  0  0
   -3.8764    0.4698    0.6122 C   0  0  0  0  0  0  0  0  0  0  0  0
   -2.5710    0.1156    0.9901 C   0  0  0  0  0  0  0  0  0  0  0  0
   -4.3264    0.1478   -0.6849 C   0  0  0  0  0  0  0  0  0  0  0  0
    4.0763    0.9325   -1.0139 C   0  0  0  0  0  0  0  0  0  0  0  0
    3.8906    1.3665    1.3557 C   0  0  0  0  0  0  0  0  0  0  0  0
   -2.1759   -0.8627   -1.1844 C   0  0  0  0  0  0  0  0  0  0  0  0
    4.3949    1.7082    0.1007 C   0  0  0  0  0  0  0  0  0  0  0  0
   -3.4693   -0.5183   -1.5765 C   0  0  0  0  0  0  0  0  0  0  0  0
   -4.7456    1.1340    1.4855 C   0  0  0  0  0  0  0  0  0  0  0  0
   -5.6299    0.5159   -1.0245 C   0  0  0  0  0  0  0  0  0  0  0  0
   -6.0192    1.4493    1.0375 C   0  0  0  0  0  0  0  0  0  0  0  0
    5.6791    3.0900   -1.3474 C   0  0  0  0  0  0  0  0  0  0  0  0
    1.5714   -1.8516    1.5916 H   0  0  0  0  0  0  0  0  0  0  0  0
    1.8530   -3.8942    0.2360 H   0  0  0  0  0  0  0  0  0  0  0  0
    2.8475   -3.0379   -0.9325 H   0  0  0  0  0  0  0  0  0  0  0  0
   -0.1846   -0.6254    1.4358 H   0  0  0  0  0  0  0  0  0  0  0  0
    3.0158   -0.7749   -1.7544 H   0  0  0  0  0  0  0  0  0  0  0  0
    2.6823   -0.0044    2.4797 H   0  0  0  0  0  0  0  0  0  0  0  0
   -2.2130    0.3592    1.9893 H   0  0  0  0  0  0  0  0  0  0  0  0
    4.4330    1.1409   -2.0168 H   0  0  0  0  0  0  0  0  0  0  0  0
    4.1355    1.9671    2.2275 H   0  0  0  0  0  0  0  0  0  0  0  0
   -1.5841   -1.3746   -1.9298 H   0  0  0  0  0  0  0  0  0  0  0  0
    4.1267   -4.2253    0.6826 H   0  0  0  0  0  0  0  0  0  0  0  0
    3.4728   -3.3820    1.9165 H   0  0  0  0  0  0  0  0  0  0  0  0
   -3.8048   -0.7724   -2.5795 H   0  0  0  0  0  0  0  0  0  0  0  0
   -4.4430    1.4022    2.4931 H   0  0  0  0  0  0  0  0  0  0  0  0
   -6.0389    0.2980   -2.0074 H   0  0  0  0  0  0  0  0  0  0  0  0
   -6.7218    1.9638    1.6850 H   0  0  0  0  0  0  0  0  0  0  0  0
    6.3204    2.2880   -1.7287 H   0  0  0  0  0  0  0  0  0  0  0  0
    4.8586    3.3271   -2.0331 H   0  0  0  0  0  0  0  0  0  0  0  0
    6.3014    3.9877   -1.2712 H   0  0  0  0  0  0  0  0  0  0  0  0
  1  9  2  0  0  0  0
  2 19  1  0  0  0  0
  2 24  1  0  0  0  0
  3  9  1  0  0  0  0
  3 12  1  0  0  0  0
  3 28  1  0  0  0  0
  4  8  1  0  0  0  0
  4 35  1  0  0  0  0
  4 36  1  0  0  0  0
  5 22  2  0  0  0  0
  5 23  1  0  0  0  0
  6  7  1  0  0  0  0
  6  8  1  0  0  0  0
  6  9  1  0  0  0  0
  6 25  1  0  0  0  0
  7 10  2  0  0  0  0
  7 11  1  0  0  0  0
  8 26  1  0  0  0  0
  8 27  1  0  0  0  0
 10 16  1  0  0  0  0
 10 29  1  0  0  0  0
 11 17  2  0  0  0  0
 11 30  1  0  0  0  0
 12 14  2  0  0  0  0
 12 18  1  0  0  0  0
 13 14  1  0  0  0  0
 13 15  2  0  0  0  0
 13 21  1  0  0  0  0
 14 31  1  0  0  0  0
 15 20  1  0  0  0  0
 15 22  1  0  0  0  0
 16 19  2  0  0  0  0
 16 32  1  0  0  0  0
 17 19  1  0  0  0  0
 17 33  1  0  0  0  0
 18 20  2  0  0  0  0
 18 34  1  0  0  0  0
 20 37  1  0  0  0  0
 21 23  2  0  0  0  0
 21 38  1  0  0  0  0
 22 39  1  0  0  0  0
 23 40  1  0  0  0  0
 24 41  1  0  0  0  0
 24 42  1  0  0  0  0
 24 43  1  0  0  0  0
M  END
> <PUBCHEM_COMPOUND_CID>
127026938

> <PUBCHEM_CONFORMER_RMSD>
0.8

> <PUBCHEM_CONFORMER_DIVERSEORDER>
1
18
49
52
38
24
47
57
36
43
51
5
15
48
17
4
25
22
41
34
11
33
40
58
62
7
54
16
61
13
21
6
26
53
8
37
60
27
55
9
14
44
12
59
3
50
35
32
42
31
45
30
56
19
23
20
28
46
39
29
2
10

> <PUBCHEM_MMFF94_PARTIAL_CHARGES>
35
1 -0.57
10 -0.15
11 -0.15
12 0.12
14 -0.15
16 -0.15
17 -0.15
18 -0.15
19 0.08
2 -0.36
20 -0.15
21 -0.15
22 0.16
23 0.16
24 0.28
28 0.37
29 0.15
3 -0.55
30 0.15
31 0.15
32 0.15
33 0.15
34 0.15
35 0.36
36 0.36
37 0.15
38 0.15
39 0.15
4 -0.99
40 0.15
5 -0.62
6 0.2
7 -0.14
8 0.27
9 0.57

> <PUBCHEM_EFFECTIVE_ROTOR_COUNT>
6

> <PUBCHEM_PHARMACOPHORE_FEATURES>
9
1 1 acceptor
1 2 acceptor
1 3 donor
1 4 cation
1 4 donor
1 5 acceptor
6 12 13 14 15 18 20 rings
6 5 13 15 21 22 23 rings
6 7 10 11 16 17 19 rings

> <PUBCHEM_HEAVY_ATOM_COUNT>
24

> <PUBCHEM_ATOM_DEF_STEREO_COUNT>
0

> <PUBCHEM_ATOM_UDEF_STEREO_COUNT>
1

> <PUBCHEM_BOND_DEF_STEREO_COUNT>
0

> <PUBCHEM_BOND_UDEF_STEREO_COUNT>
0

> <PUBCHEM_ISOTOPIC_ATOM_COUNT>
0

> <PUBCHEM_COMPONENT_COUNT>
1

> <PUBCHEM_CACTVS_TAUTO_COUNT>
20

> <PUBCHEM_CONFORMER_ID>
079246FA00000001

> <PUBCHEM_MMFF94_ENERGY>
79.3037

> <PUBCHEM_FEATURE_SELFOVERLAP>
45.698

> <PUBCHEM_SHAPE_FINGERPRINT>
10319926 262 14924209491848622884
10498660 4 17917429869041270184
10554248 39 17843672280489078629
10670039 82 17417820508400847033
11059845 2 12903756790340423086
11823591 26 18338514248695248624
12616971 3 18200582593528307871
12633257 1 16153990269646858252
12839892 36 13912321270601487097
12892183 10 15430300435038757804
13540713 5 18268972324113786502
13878862 14 18191846973376420845
13955234 65 18187364273281861410
14170010 4 18338229363620351194
14251740 57 12901820584934806488
14251764 38 18120087282729166933
14251764 75 18263087785057712020
14528608 73 17917988378378412713
14739800 52 17631148897204624394
14774955 27 18410011048220218205
14840074 17 18410577309905285125
14848178 5 8502375503435004445
14849402 71 18335140848274030954
14910302 57 13614229383144821141
15131766 46 18337380643411856069
15183329 4 16200163083497284440
15188451 53 12396292699346483801
15210252 30 18342176713090231328
15342168 16 18409447007287049135
17349148 13 10881403102078947081
17844677 252 18189617134131108405
1813 80 17911802367263923102
1979834 28 17821454559936122724
20567600 234 17748831847492612749
20567600 9 18272097075929461720
21033648 144 18335976528044041783
21033648 29 17240758446267217007
21033650 10 15841284665950737867
22849339 104 16056586716902443477
23366157 5 17199964250232883199
23559900 14 17023476234966791427
268830 7 18338233752802029843
270888 7 18263926712672324124
283562 15 17830731324561781690
2838139 119 18130506457019787696
3004659 81 17703226204921251182
3472631 163 18272654592348463780
34797466 226 14979660131533889827
3729539 64 12823032897440463493
38570 142 18340218465795302942
397830 11 18041292019459841059
465052 167 9511460047842000585
474 4 18410854373591223795
5104073 3 18333732403690693307
513532 50 16702015384072230000
5219985 9 18052536565959249114
543368 44 18202280342703175361
57724786 102 18408324354449296240
59682541 52 17131849655178838756
6034566 193 18190747620498839261
633830 44 18342176674171300526
6608658 132 17632305540693814721
67856867 119 18201425948510533874
6823239 73 16009609970546744614
7808743 9 18191587669442962572
960060 61 12967127237353985344

> <PUBCHEM_SHAPE_MULTIPOLES>
467.23
15.3
2.97
1.51
10.69
0.74
-0.05
-12.42
-0.51
-6.15
-0.07
0.21
-0.25
-2.1

> <PUBCHEM_SHAPE_SELFOVERLAP>
1012.907

> <PUBCHEM_SHAPE_VOLUME>
254.1

> <PUBCHEM_COORDINATE_TYPE>
2
5
10

$$$$
46184852
  -OEChem-05102415033D

 42 44  0     1  0  0  0  0  0999 V2000
    1.1315   -1.3011   -1.4003 O   0  0  0  0  0  0  0  0  0  0  0  0
    0.0973   -0.3000    0.4536 N   0  0  0  0  0  0  0  0  0  0  0  0
    3.9834   -4.1819    0.6510 N   0  0  0  0  0  0  0  0  0  0  0  0
   -6.2790    0.3737   -0.1932 N   0  0  0  0  0  0  0  0  0  0  0  0
    2.4926   -0.6485    0.4878 C   0  0  1  0  0  0  0  0  0  0  0  0
    3.4271   -1.8396    0.1810 C   0  0  0  0  0  0  0  0  0  0  0  0
    3.1330    0.6967    0.1884 C   0  0  0  0  0  0  0  0  0  0  0  0
    1.1715   -0.7925   -0.2833 C   0  0  0  0  0  0  0  0  0  0  0  0
    3.0600   -3.0988    0.9714 C   0  0  0  0  0  0  0  0  0  0  0  0
    4.0230    0.8237   -0.8781 C   0  0  0  0  0  0  0  0  0  0  0  0
    2.8309    1.8043    0.9803 C   0  0  0  0  0  0  0  0  0  0  0  0
   -1.2653   -0.2629    0.0739 C   0  0  0  0  0  0  0  0  0  0  0  0
   -2.2170    0.2699    0.9453 C   0  0  0  0  0  0  0  0  0  0  0  0
   -3.5732    0.3123    0.5827 C   0  0  0  0  0  0  0  0  0  0  0  0
   -3.9631   -0.1908   -0.6757 C   0  0  0  0  0  0  0  0  0  0  0  0
   -1.6543   -0.7588   -1.1682 C   0  0  0  0  0  0  0  0  0  0  0  0
    4.6109    2.0585   -1.1528 C   0  0  0  0  0  0  0  0  0  0  0  0
    3.4186    3.0391    0.7058 C   0  0  0  0  0  0  0  0  0  0  0  0
   -2.9969   -0.7244   -1.5446 C   0  0  0  0  0  0  0  0  0  0  0  0
    4.3087    3.1662   -0.3607 C   0  0  0  0  0  0  0  0  0  0  0  0
   -4.5510    0.8401    1.4339 C   0  0  0  0  0  0  0  0  0  0  0  0
   -5.3197   -0.1316   -1.0012 C   0  0  0  0  0  0  0  0  0  0  0  0
   -5.8689    0.8463    1.0031 C   0  0  0  0  0  0  0  0  0  0  0  0
    2.2820   -0.6797    1.5660 H   0  0  0  0  0  0  0  0  0  0  0  0
    4.4585   -1.5744    0.4538 H   0  0  0  0  0  0  0  0  0  0  0  0
    3.4376   -2.0726   -0.8916 H   0  0  0  0  0  0  0  0  0  0  0  0
    3.1076   -2.8969    2.0467 H   0  0  0  0  0  0  0  0  0  0  0  0
    2.0379   -3.4127    0.7343 H   0  0  0  0  0  0  0  0  0  0  0  0
    0.2939    0.0863    1.3741 H   0  0  0  0  0  0  0  0  0  0  0  0
    4.2656   -0.0133   -1.5255 H   0  0  0  0  0  0  0  0  0  0  0  0
    2.1401    1.7204    1.8148 H   0  0  0  0  0  0  0  0  0  0  0  0
   -1.9038    0.6553    1.9143 H   0  0  0  0  0  0  0  0  0  0  0  0
   -0.9774   -1.1843   -1.8952 H   0  0  0  0  0  0  0  0  0  0  0  0
    5.3005    2.1588   -1.9858 H   0  0  0  0  0  0  0  0  0  0  0  0
    3.1833    3.9018    1.3223 H   0  0  0  0  0  0  0  0  0  0  0  0
    3.6978   -5.0261    1.1452 H   0  0  0  0  0  0  0  0  0  0  0  0
    3.9255   -4.3995   -0.3431 H   0  0  0  0  0  0  0  0  0  0  0  0
   -3.2850   -1.1153   -2.5179 H   0  0  0  0  0  0  0  0  0  0  0  0
    4.7655    4.1279   -0.5751 H   0  0  0  0  0  0  0  0  0  0  0  0
   -4.2979    1.2387    2.4116 H   0  0  0  0  0  0  0  0  0  0  0  0
   -5.6871   -0.5018   -1.9544 H   0  0  0  0  0  0  0  0  0  0  0  0
   -6.6554    1.2468    1.6345 H   0  0  0  0  0  0  0  0  0  0  0  0
  1  8  2  0  0  0  0
  2  8  1  0  0  0  0
  2 12  1  0  0  0  0
  2 29  1  0  0  0  0
  3  9  1  0  0  0  0
  3 36  1  0  0  0  0
  3 37  1  0  0  0  0
  4 22  2  0  0  0  0
  4 23  1  0  0  0  0
  5  6  1  0  0  0  0
  5  7  1  0  0  0  0
  5  8  1  0  0  0  0
  5 24  1  0  0  0  0
  6  9  1  0  0  0  0
  6 25  1  0  0  0  0
  6 26  1  0  0  0  0
  7 10  2  0  0  0  0
  7 11  1  0  0  0  0
  9 27  1  0  0  0  0
  9 28  1  0  0  0  0
 10 17  1  0  0  0  0
 10 30  1  0  0  0  0
 11 18  2  0  0  0  0
 11 31  1  0  0  0  0
 12 13  2  0  0  0  0
 12 16  1  0  0  0  0
 13 14  1  0  0  0  0
 13 32  1  0  0  0  0
 14 15  2  0  0  0  0
 14 21  1  0  0  0  0
 15 19  1  0  0  0  0
 15 22  1  0  0  0  0
 16 19  2  0  0  0  0
 16 33  1  0  0  0  0
 17 20  2  0  0  0  0
 17 34  1  0  0  0  0
 18 20  1  0  0  0  0
 18 35  1  0  0  0  0
 19 38  1  0  0  0  0
 20 39  1  0  0  0  0
 21 23  2  0  0  0  0
 21 40  1  0  0  0  0
 22 41  1  0  0  0  0
 23 42  1  0  0  0  0
M  END
> <PUBCHEM_COMPOUND_CID>
46184852

> <PUBCHEM_CONFORMER_RMSD>
0.8

> <PUBCHEM_CONFORMER_DIVERSEORDER>
1
15
52
24
67
47
50
71
63
74
22
49
53
64
38
75
21
66
57
61
73
41
45
33
16
36
46
11
70
23
37
9
69
17
12
60
14
65
56
59
55
62
29
3
40
58
42
72
8
18
20
44
28
13
5
39
32
31
34
25
43
54
4
7
2
6
68
35
30
51
10
48
26
19
27

> <PUBCHEM_MMFF94_PARTIAL_CHARGES>
34
1 -0.57
10 -0.15
11 -0.15
12 0.12
13 -0.15
16 -0.15
17 -0.15
18 -0.15
19 -0.15
2 -0.55
20 -0.15
21 -0.15
22 0.16
23 0.16
29 0.37
3 -0.99
30 0.15
31 0.15
32 0.15
33 0.15
34 0.15
35 0.15
36 0.36
37 0.36
38 0.15
39 0.15
4 -0.62
40 0.15
41 0.15
42 0.15
5 0.2
7 -0.14
8 0.57
9 0.27

> <PUBCHEM_EFFECTIVE_ROTOR_COUNT>
6

> <PUBCHEM_PHARMACOPHORE_FEATURES>
8
1 1 acceptor
1 2 donor
1 3 cation
1 3 donor
1 4 acceptor
6 12 13 14 15 16 19 rings
6 4 14 15 21 22 23 rings
6 7 10 11 17 18 20 rings

> <PUBCHEM_HEAVY_ATOM_COUNT>
23

> <PUBCHEM_ATOM_DEF_STEREO_COUNT>
0

> <PUBCHEM_ATOM_UDEF_STEREO_COUNT>
1

> <PUBCHEM_BOND_DEF_STEREO_COUNT>
0

> <PUBCHEM_BOND_UDEF_STEREO_COUNT>
0

> <PUBCHEM_ISOTOPIC_ATOM_COUNT>
0

> <PUBCHEM_COMPONENT_COUNT>
1

> <PUBCHEM_CACTVS_TAUTO_COUNT>
3

> <PUBCHEM_CONFORMER_ID>
02C0B99400000001

> <PUBCHEM_MMFF94_ENERGY>
64.2571

> <PUBCHEM_FEATURE_SELFOVERLAP>
40.623

> <PUBCHEM_SHAPE_FINGERPRINT>
10165383 225 18041572424915997812
10554248 39 18058439916770425533
10595046 47 18341610447610979959
10670039 82 16916802759464684953
10912923 1 18202562869994151451
12107183 9 17909272377843206561
12236239 1 18060698390124413951
12403259 415 17531243920772804303
12596602 18 18335425669204040115
12616971 3 18201151058340848623
12730499 353 18334303101448130826
12788726 201 17560814194869430025
13009979 54 17772191912601544154
13533116 47 18335702711247201115
13583140 156 18337679706168347531
13631057 29 18050564350882723911
13878862 14 18263903493809915285
13955234 65 18333730200377517546
14528608 73 18059575840630049117
14739800 52 17488443308726370368
14840074 17 18339650039748822349
15131766 46 18266731558192294013
15142526 21 18122903393974136256
15183329 4 17131569296155308492
15210252 30 18267024041001736200
15342168 16 18263364844375123029
15575132 122 18343305860356280925
15842332 3 18058430123512111638
17844677 252 18261674758107362877
17868525 174 18047463431470133128
1813 80 18055073156158111262
18681886 176 17132112468305973316
19784866 34 18266457792612755112
21033648 29 17458614614884855533
21344244 78 18197481957916076722
2255824 54 18412259515656727114
23081809 10 18131346394040904475
23557571 272 16732701627710227045
23559900 14 17240774942894111795
23845131 108 18189615119549438418
25147074 1 18131055056822815791
268830 7 18411138000858304721
3004659 81 17775005648128666262
38570 142 18340218495886694692
474 4 18337673143105105352
5104073 3 18261671575077894987
5219985 9 18194118513646359738
543368 44 18058730346453637433
5912855 24 18269833284799902895
6034566 193 17755027732395564860
633830 44 18270401732257955684
67856867 119 18272641355338105794
6823239 73 15936700272213829374
77188 2 18047750404696079010
8272917 22 18408885135876977030
90127 26 17749385915406199685
9841814 1 18042676218362872074

> <PUBCHEM_SHAPE_MULTIPOLES>
452.52
13.67
3.29
1.35
14.4
1.82
-0.16
-5.04
0.12
-8.48
0.9
0.64
0
-1.88

> <PUBCHEM_SHAPE_SELFOVERLAP>
978.039

> <PUBCHEM_SHAPE_VOLUME>
246.2

> <PUBCHEM_COORDINATE_TYPE>
2
5
10

$$$$
59563696
  -OEChem-05102415043D

 54 56  0     1  0  0  0  0  0999 V2000
   -4.7289    0.3172    0.1050 O   0  0  0  0  0  0  0  0  0  0  0  0
   -3.3811    2.1936   -0.2092 O   0  0  0  0  0  0  0  0  0  0  0  0
    1.3082   -2.4545   -1.5399 O   0  0  0  0  0  0  0  0  0  0  0  0
    1.8494   -1.3007    0.4362 N   0  0  0  0  0  0  0  0  0  0  0  0
   -1.2769   -4.9854    0.7273 N   0  0  0  0  0  0  0  0  0  0  0  0
    6.8919    2.6424   -0.1181 N   0  0  0  0  0  0  0  0  0  0  0  0
   -5.8125    2.4689   -0.1785 C   0  0  0  0  0  0  0  0  0  0  0  0
   -0.0354   -2.8500    0.4309 C   0  0  1  0  0  0  0  0  0  0  0  0
   -1.2941   -2.0010    0.3439 C   0  0  0  0  0  0  0  0  0  0  0  0
   -0.2532   -4.2975   -0.0553 C   0  0  0  0  0  0  0  0  0  0  0  0
   -5.5179    3.9521   -0.4380 C   0  0  0  0  0  0  0  0  0  0  0  0
   -6.5854    2.2967    1.1356 C   0  0  0  0  0  0  0  0  0  0  0  0
   -6.6642    1.9193   -1.3341 C   0  0  0  0  0  0  0  0  0  0  0  0
   -4.4935    1.6904   -0.1032 C   0  0  0  0  0  0  0  0  0  0  0  0
    1.1058   -2.1891   -0.3583 C   0  0  0  0  0  0  0  0  0  0  0  0
   -1.8366   -1.4368    1.4986 C   0  0  0  0  0  0  0  0  0  0  0  0
   -1.9061   -1.7862   -0.8910 C   0  0  0  0  0  0  0  0  0  0  0  0
   -3.6030   -0.4435    0.1833 C   0  0  0  0  0  0  0  0  0  0  0  0
   -2.9910   -0.6581    1.4183 C   0  0  0  0  0  0  0  0  0  0  0  0
   -3.0606   -1.0075   -0.9714 C   0  0  0  0  0  0  0  0  0  0  0  0
    2.9500   -0.5262    0.0670 C   0  0  0  0  0  0  0  0  0  0  0  0
    3.5667    0.3009    1.0073 C   0  0  0  0  0  0  0  0  0  0  0  0
    4.6743    1.0871    0.6501 C   0  0  0  0  0  0  0  0  0  0  0  0
    5.1576    1.0304   -0.6735 C   0  0  0  0  0  0  0  0  0  0  0  0
    3.4304   -0.5794   -1.2394 C   0  0  0  0  0  0  0  0  0  0  0  0
    4.5296    0.1943   -1.6114 C   0  0  0  0  0  0  0  0  0  0  0  0
    5.3143    1.9260    1.5697 C   0  0  0  0  0  0  0  0  0  0  0  0
    6.2604    1.8258   -0.9914 C   0  0  0  0  0  0  0  0  0  0  0  0
    6.4019    2.6708    1.1395 C   0  0  0  0  0  0  0  0  0  0  0  0
    0.2809   -2.9120    1.4821 H   0  0  0  0  0  0  0  0  0  0  0  0
   -0.5357   -4.3280   -1.1140 H   0  0  0  0  0  0  0  0  0  0  0  0
    0.6876   -4.8538    0.0328 H   0  0  0  0  0  0  0  0  0  0  0  0
   -4.9104    4.3815    0.3671 H   0  0  0  0  0  0  0  0  0  0  0  0
   -4.9661    4.0914   -1.3749 H   0  0  0  0  0  0  0  0  0  0  0  0
   -6.4431    4.5353   -0.5043 H   0  0  0  0  0  0  0  0  0  0  0  0
   -5.9829    2.6288    1.9889 H   0  0  0  0  0  0  0  0  0  0  0  0
   -6.8535    1.2497    1.3166 H   0  0  0  0  0  0  0  0  0  0  0  0
   -7.5123    2.8810    1.1298 H   0  0  0  0  0  0  0  0  0  0  0  0
   -6.9396    0.8709   -1.1727 H   0  0  0  0  0  0  0  0  0  0  0  0
   -6.1158    1.9668   -2.2821 H   0  0  0  0  0  0  0  0  0  0  0  0
   -7.5915    2.4912   -1.4510 H   0  0  0  0  0  0  0  0  0  0  0  0
   -1.3709   -1.5948    2.4675 H   0  0  0  0  0  0  0  0  0  0  0  0
   -1.4996   -2.2146   -1.8027 H   0  0  0  0  0  0  0  0  0  0  0  0
   -3.4088   -0.2216    2.3215 H   0  0  0  0  0  0  0  0  0  0  0  0
   -3.5325   -0.8440   -1.9364 H   0  0  0  0  0  0  0  0  0  0  0  0
    1.5549   -1.1945    1.4046 H   0  0  0  0  0  0  0  0  0  0  0  0
   -1.3821   -5.9377    0.3793 H   0  0  0  0  0  0  0  0  0  0  0  0
   -2.1804   -4.5345    0.5905 H   0  0  0  0  0  0  0  0  0  0  0  0
    3.1850    0.3369    2.0266 H   0  0  0  0  0  0  0  0  0  0  0  0
    3.0058   -1.1920   -2.0220 H   0  0  0  0  0  0  0  0  0  0  0  0
    4.8926    0.1421   -2.6354 H   0  0  0  0  0  0  0  0  0  0  0  0
    4.9777    2.0021    2.5991 H   0  0  0  0  0  0  0  0  0  0  0  0
    6.6826    1.8293   -1.9926 H   0  0  0  0  0  0  0  0  0  0  0  0
    6.9241    3.3327    1.8228 H   0  0  0  0  0  0  0  0  0  0  0  0
  1 14  1  0  0  0  0
  1 18  1  0  0  0  0
  2 14  2  0  0  0  0
  3 15  2  0  0  0  0
  4 15  1  0  0  0  0
  4 21  1  0  0  0  0
  4 46  1  0  0  0  0
  5 10  1  0  0  0  0
  5 47  1  0  0  0  0
  5 48  1  0  0  0  0
  6 28  2  0  0  0  0
  6 29  1  0  0  0  0
  7 11  1  0  0  0  0
  7 12  1  0  0  0  0
  7 13  1  0  0  0  0
  7 14  1  0  0  0  0
  8  9  1  0  0  0  0
  8 10  1  0  0  0  0
  8 15  1  0  0  0  0
  8 30  1  0  0  0  0
  9 16  2  0  0  0  0
  9 17  1  0  0  0  0
 10 31  1  0  0  0  0
 10 32  1  0  0  0  0
 11 33  1  0  0  0  0
 11 34  1  0  0  0  0
 11 35  1  0  0  0  0
 12 36  1  0  0  0  0
 12 37  1  0  0  0  0
 12 38  1  0  0  0  0
 13 39  1  0  0  0  0
 13 40  1  0  0  0  0
 13 41  1  0  0  0  0
 16 19  1  0  0  0  0
 16 42  1  0  0  0  0
 17 20  2  0  0  0  0
 17 43  1  0  0  0  0
 18 19  2  0  0  0  0
 18 20  1  0  0  0  0
 19 44  1  0  0  0  0
 20 45  1  0  0  0  0
 21 22  2  0  0  0  0
 21 25  1  0  0  0  0
 22 23  1  0  0  0  0
 22 49  1  0  0  0  0
 23 24  2  0  0  0  0
 23 27  1  0  0  0  0
 24 26  1  0  0  0  0
 24 28  1  0  0  0  0
 25 26  2  0  0  0  0
 25 50  1  0  0  0  0
 26 51  1  0  0  0  0
 27 29  2  0  0  0  0
 27 52  1  0  0  0  0
 28 53  1  0  0  0  0
 29 54  1  0  0  0  0
M  END
> <PUBCHEM_COMPOUND_CID>
59563696

> <PUBCHEM_CONFORMER_RMSD>
1

> <PUBCHEM_CONFORMER_DIVERSEORDER>
1
27
74
50
77
16
30
38
28
54
44
61
43
39
73
33
13
18
22
55
72
26
62
37
23
34
15
40
48
2
75
66
17
51
56
29
32
24
42
67
79
49
45
11
63
19
36
60
68
20
47
14
53
5
3
21
6
71
9
64
31
69
65
58
8
52
35
59
70
12
41
7
46
25
76
78
10
57
4

> <PUBCHEM_MMFF94_PARTIAL_CHARGES>
37
1 -0.23
10 0.27
14 0.66
15 0.57
16 -0.15
17 -0.15
18 0.08
19 -0.15
2 -0.57
20 -0.15
21 0.12
22 -0.15
25 -0.15
26 -0.15
27 -0.15
28 0.16
29 0.16
3 -0.57
4 -0.55
42 0.15
43 0.15
44 0.15
45 0.15
46 0.37
47 0.36
48 0.36
49 0.15
5 -0.99
50 0.15
51 0.15
52 0.15
53 0.15
54 0.15
6 -0.62
7 0.06
8 0.2
9 -0.14

> <PUBCHEM_EFFECTIVE_ROTOR_COUNT>
8

> <PUBCHEM_PHARMACOPHORE_FEATURES>
10
1 2 acceptor
1 3 acceptor
1 4 donor
1 5 cation
1 5 donor
1 6 acceptor
4 7 11 12 13 hydrophobe
6 21 22 23 24 25 26 rings
6 6 23 24 27 28 29 rings
6 9 16 17 18 19 20 rings

> <PUBCHEM_HEAVY_ATOM_COUNT>
29

> <PUBCHEM_ATOM_DEF_STEREO_COUNT>
0

> <PUBCHEM_ATOM_UDEF_STEREO_COUNT>
1

> <PUBCHEM_BOND_DEF_STEREO_COUNT>
0

> <PUBCHEM_BOND_UDEF_STEREO_COUNT>
0

> <PUBCHEM_ISOTOPIC_ATOM_COUNT>
0

> <PUBCHEM_COMPONENT_COUNT>
1

> <PUBCHEM_CACTVS_TAUTO_COUNT>
5

> <PUBCHEM_CONFORMER_ID>
038CDEB000000001

> <PUBCHEM_MMFF94_ENERGY>
90.9155

> <PUBCHEM_FEATURE_SELFOVERLAP>
50.773

> <PUBCHEM_SHAPE_FINGERPRINT>
105312 117 18339079397244878582
10533779 1 18337941342270124900
10675989 125 18124317099333619889
10864689 126 18340770352003582188
10937287 8 18410854326626736391
11135609 201 18410292519535088171
11720765 8 17771071488984278086
12107183 9 18261659395421341434
12422481 6 17240479152653987965
12633257 1 16225775128913872767
12988421 55 17749095708249708443
13944108 23 17981046310413064000
14251764 75 18270687446404440617
14294032 229 18341338902546631435
14429114 114 18193555563292245525
14739800 52 18043244640046034379
14849402 71 18047752598459458123
14950920 106 16009601320350345400
15163728 17 18409729534726380691
15198563 99 17911230947376499431
15439362 3 18339645543002452630
15513586 35 16736375280721271284
15803439 3 16917348155896960670
15980000 95 17402615143511285006
16120349 189 18335416889325503333
19304671 126 17774449273781224876
19438510 23 18260830388505397505
20238998 120 17400918596858630098
20691028 202 18408886239351613852
20775438 99 12606817281954783556
21033648 144 18129674113648101566
21033648 29 18335710450530283566
21401589 2 18186518796115740483
21424621 283 18410008840633349943
21585480 29 12470075478584006536
21585481 104 16128109832030359745
23522609 53 17387420250067229700
23559900 14 17905885878199471171
270888 7 18409728452225407757
2748736 6 18409439272156937701
2838139 119 18268423543330398805
3246875 12 18409451388997794395
3418910 222 17183631430108924256
376196 1 18341616983924477174
3862424 121 13757203360035604085
3918712 181 18411971447610259881
393628 179 18270945938690059688
4144715 1 17974857474047330314
44249763 50 17845077631846968200
474113 269 11963683248735046233
4756326 101 15625067938528037210
508706 21 18198617942195022672
5219985 13 18410011022519161767
56633871 153 11314320463766439929
5718773 13 9223228533508280329
57724786 102 18187641380297631738
6327066 14 18409444799694983997
636775 72 18125152982339158688
6695519 79 18122095090252091435
6697151 62 17106198908076137719
6712543 237 14851606562109557737
7288768 16 18113900459621959259
7808743 9 18336827601757562314
7970288 3 9439406830317815732
9849439 229 18409162195157757107
9981440 41 18333736814548272707

> <PUBCHEM_SHAPE_MULTIPOLES>
564.26
18.44
5.2
1.43
2.89
3.4
-0.01
-27.69
0.68
-3.55
-0.41
0.65
-0.12
1.67

> <PUBCHEM_SHAPE_SELFOVERLAP>
1212.093

> <PUBCHEM_SHAPE_VOLUME>
309.3

> <PUBCHEM_COORDINATE_TYPE>
2
5
10

$$$$
127028205
  -OEChem-05102415043D

 57 59  0     1  0  0  0  0  0999 V2000
   -4.0573   -0.1092    0.0810 O   0  0  0  0  0  0  0  0  0  0  0  0
    2.9902   -2.6443   -1.4195 O   0  0  0  0  0  0  0  0  0  0  0  0
   -6.3517   -0.0694    0.3206 O   0  0  0  0  0  0  0  0  0  0  0  0
    2.3707   -1.2062    0.3287 N   0  0  0  0  0  0  0  0  0  0  0  0
    0.7961   -5.8440    0.1481 N   0  0  0  0  0  0  0  0  0  0  0  0
    5.2280    4.5642    0.0671 N   0  0  0  0  0  0  0  0  0  0  0  0
    1.4027   -3.4294    0.2441 C   0  0  1  0  0  0  0  0  0  0  0  0
   -0.0038   -2.9353    0.2839 C   0  0  0  0  0  0  0  0  0  0  0  0
    1.5753   -4.7873   -0.4919 C   0  0  0  0  0  0  0  0  0  0  0  0
    2.3460   -2.3892   -0.4058 C   0  0  0  0  0  0  0  0  0  0  0  0
   -0.6365   -2.7297    1.5100 C   0  0  0  0  0  0  0  0  0  0  0  0
   -0.6857   -2.6762   -0.9051 C   0  0  0  0  0  0  0  0  0  0  0  0
   -2.6330   -2.0057    0.3581 C   0  0  0  0  0  0  0  0  0  0  0  0
   -1.9510   -2.2647    1.5470 C   0  0  0  0  0  0  0  0  0  0  0  0
   -2.0002   -2.2114   -0.8679 C   0  0  0  0  0  0  0  0  0  0  0  0
   -4.0469   -1.5049    0.3975 C   0  0  0  0  0  0  0  0  0  0  0  0
    3.1111   -0.0328    0.0507 C   0  0  0  0  0  0  0  0  0  0  0  0
   -6.4660    2.6770   -0.3135 C   0  0  0  0  0  0  0  0  0  0  0  0
   -5.1250    1.9464   -0.2689 C   0  0  0  0  0  0  0  0  0  0  0  0
   -6.2807    4.1608   -0.6278 C   0  0  0  0  0  0  0  0  0  0  0  0
    3.0199    1.0673    0.9053 C   0  0  0  0  0  0  0  0  0  0  0  0
    3.7477    2.2392    0.6417 C   0  0  0  0  0  0  0  0  0  0  0  0
    3.9285    0.0227   -1.0758 C   0  0  0  0  0  0  0  0  0  0  0  0
    4.5741    2.2913   -0.4998 C   0  0  0  0  0  0  0  0  0  0  0  0
   -5.2880    0.4844    0.0794 C   0  0  0  0  0  0  0  0  0  0  0  0
    4.6584    1.1784   -1.3528 C   0  0  0  0  0  0  0  0  0  0  0  0
   -7.6098    4.8989   -0.6347 C   0  0  0  0  0  0  0  0  0  0  0  0
    3.6777    3.3584    1.4792 C   0  0  0  0  0  0  0  0  0  0  0  0
    5.2824    3.4727   -0.7291 C   0  0  0  0  0  0  0  0  0  0  0  0
    4.4270    4.4779    1.1504 C   0  0  0  0  0  0  0  0  0  0  0  0
    1.7765   -3.5695    1.2695 H   0  0  0  0  0  0  0  0  0  0  0  0
    1.2803   -4.7114   -1.5450 H   0  0  0  0  0  0  0  0  0  0  0  0
    2.6316   -5.0809   -0.4771 H   0  0  0  0  0  0  0  0  0  0  0  0
   -0.1187   -2.9256    2.4451 H   0  0  0  0  0  0  0  0  0  0  0  0
   -0.2084   -2.8246   -1.8699 H   0  0  0  0  0  0  0  0  0  0  0  0
   -2.4308   -2.1068    2.5092 H   0  0  0  0  0  0  0  0  0  0  0  0
   -2.5216   -2.0107   -1.8001 H   0  0  0  0  0  0  0  0  0  0  0  0
    1.8028   -1.1621    1.1717 H   0  0  0  0  0  0  0  0  0  0  0  0
   -4.6536   -2.0568   -0.3314 H   0  0  0  0  0  0  0  0  0  0  0  0
   -4.4846   -1.6580    1.3916 H   0  0  0  0  0  0  0  0  0  0  0  0
   -7.1143    2.2153   -1.0687 H   0  0  0  0  0  0  0  0  0  0  0  0
   -6.9778    2.5661    0.6508 H   0  0  0  0  0  0  0  0  0  0  0  0
   -4.4780    2.4052    0.4872 H   0  0  0  0  0  0  0  0  0  0  0  0
   -4.6356    2.0138   -1.2470 H   0  0  0  0  0  0  0  0  0  0  0  0
    0.9345   -6.7173   -0.3590 H   0  0  0  0  0  0  0  0  0  0  0  0
   -0.1982   -5.6323    0.0785 H   0  0  0  0  0  0  0  0  0  0  0  0
   -5.7981    4.2767   -1.6051 H   0  0  0  0  0  0  0  0  0  0  0  0
   -5.6203    4.6201    0.1170 H   0  0  0  0  0  0  0  0  0  0  0  0
    2.3781    1.0152    1.7834 H   0  0  0  0  0  0  0  0  0  0  0  0
    4.0473   -0.7847   -1.7842 H   0  0  0  0  0  0  0  0  0  0  0  0
    5.2916    1.2066   -2.2368 H   0  0  0  0  0  0  0  0  0  0  0  0
   -8.1018    4.8307    0.3408 H   0  0  0  0  0  0  0  0  0  0  0  0
   -7.4540    5.9579   -0.8632 H   0  0  0  0  0  0  0  0  0  0  0  0
   -8.2848    4.4841   -1.3901 H   0  0  0  0  0  0  0  0  0  0  0  0
    3.0553    3.3642    2.3688 H   0  0  0  0  0  0  0  0  0  0  0  0
    5.9367    3.5792   -1.5900 H   0  0  0  0  0  0  0  0  0  0  0  0
    4.3991    5.3651    1.7748 H   0  0  0  0  0  0  0  0  0  0  0  0
  1 16  1  0  0  0  0
  1 25  1  0  0  0  0
  2 10  2  0  0  0  0
  3 25  2  0  0  0  0
  4 10  1  0  0  0  0
  4 17  1  0  0  0  0
  4 38  1  0  0  0  0
  5  9  1  0  0  0  0
  5 45  1  0  0  0  0
  5 46  1  0  0  0  0
  6 29  2  0  0  0  0
  6 30  1  0  0  0  0
  7  8  1  0  0  0  0
  7  9  1  0  0  0  0
  7 10  1  0  0  0  0
  7 31  1  0  0  0  0
  8 11  2  0  0  0  0
  8 12  1  0  0  0  0
  9 32  1  0  0  0  0
  9 33  1  0  0  0  0
 11 14  1  0  0  0  0
 11 34  1  0  0  0  0
 12 15  2  0  0  0  0
 12 35  1  0  0  0  0
 13 14  2  0  0  0  0
 13 15  1  0  0  0  0
 13 16  1  0  0  0  0
 14 36  1  0  0  0  0
 15 37  1  0  0  0  0
 16 39  1  0  0  0  0
 16 40  1  0  0  0  0
 17 21  2  0  0  0  0
 17 23  1  0  0  0  0
 18 19  1  0  0  0  0
 18 20  1  0  0  0  0
 18 41  1  0  0  0  0
 18 42  1  0  0  0  0
 19 25  1  0  0  0  0
 19 43  1  0  0  0  0
 19 44  1  0  0  0  0
 20 27  1  0  0  0  0
 20 47  1  0  0  0  0
 20 48  1  0  0  0  0
 21 22  1  0  0  0  0
 21 49  1  0  0  0  0
 22 24  2  0  0  0  0
 22 28  1  0  0  0  0
 23 26  2  0  0  0  0
 23 50  1  0  0  0  0
 24 26  1  0  0  0  0
 24 29  1  0  0  0  0
 26 51  1  0  0  0  0
 27 52  1  0  0  0  0
 27 53  1  0  0  0  0
 27 54  1  0  0  0  0
 28 30  2  0  0  0  0
 28 55  1  0  0  0  0
 29 56  1  0  0  0  0
 30 57  1  0  0  0  0
M  END
> <PUBCHEM_COMPOUND_CID>
127028205

> <PUBCHEM_CONFORMER_RMSD>
1

> <PUBCHEM_CONFORMER_DIVERSEORDER>
1
162
97
66
98
112
25
146
142
200
160
177
30
143
68
175
202
128
28
220
145
116
157
190
132
136
84
46
64
161
100
172
94
209
62
106
149
216
38
111
186
37
178
22
115
195
191
81
205
51
121
47
105
188
192
223
70
35
199
158
119
24
176
185
174
6
110
147
150
222
118
14
15
210
33
54
44
108
10
126
163
18
91
17
3
137
213
120
166
75
155
69
12
144
71
23
197
42
184
179
218
95
207
16
61
57
74
219
48
58
134
182
127
93
206
113
101
39
77
36
131
45
201
170
169
32
215
87
164
153
117
78
102
65
129
140
180
67
9
103
212
49
89
171
208
21
221
187
198
203
114
194
123
40
96
125
141
56
130
31
99
135
139
11
154
72
193
34
26
204
156
79
88
107
189
217
80
214
181
13
104
165
4
27
124
196
50
82
92
29
151
83
52
167
60
138
73
19
133
211
43
20
55
173
183
168
5
76
59
7
109
53
159
152
148
122
8
63
90
41
86
85
2

> <PUBCHEM_MMFF94_PARTIAL_CHARGES>
38
1 -0.43
10 0.57
11 -0.15
12 -0.15
13 -0.14
14 -0.15
15 -0.15
16 0.42
17 0.12
19 0.06
2 -0.57
21 -0.15
23 -0.15
25 0.66
26 -0.15
28 -0.15
29 0.16
3 -0.57
30 0.16
34 0.15
35 0.15
36 0.15
37 0.15
38 0.37
4 -0.55
45 0.36
46 0.36
49 0.15
5 -0.99
50 0.15
51 0.15
55 0.15
56 0.15
57 0.15
6 -0.62
7 0.2
8 -0.14
9 0.27

> <PUBCHEM_EFFECTIVE_ROTOR_COUNT>
11

> <PUBCHEM_PHARMACOPHORE_FEATURES>
10
1 2 acceptor
1 27 hydrophobe
1 3 acceptor
1 4 donor
1 5 cation
1 5 donor
1 6 acceptor
6 17 21 22 23 24 26 rings
6 6 22 24 28 29 30 rings
6 8 11 12 13 14 15 rings

> <PUBCHEM_HEAVY_ATOM_COUNT>
30

> <PUBCHEM_ATOM_DEF_STEREO_COUNT>
0

> <PUBCHEM_ATOM_UDEF_STEREO_COUNT>
1

> <PUBCHEM_BOND_DEF_STEREO_COUNT>
0

> <PUBCHEM_BOND_UDEF_STEREO_COUNT>
0

> <PUBCHEM_ISOTOPIC_ATOM_COUNT>
0

> <PUBCHEM_COMPONENT_COUNT>
1

> <PUBCHEM_CACTVS_TAUTO_COUNT>
27

> <PUBCHEM_CONFORMER_ID>
07924BED00000001

> <PUBCHEM_MMFF94_ENERGY>
71.1511

> <PUBCHEM_FEATURE_SELFOVERLAP>
50.773

> <PUBCHEM_SHAPE_FINGERPRINT>
10556698 54 18270132192510265933
10675989 125 18338796693738989337
10771551 21 18128259986865508857
10864689 126 18340211890275238956
10928967 22 10734785489577713180
10937287 8 18339921627193748426
11059845 2 18051943070160548112
11386260 185 17909261383017053183
12107183 9 18264472058023979866
12633257 1 15937806539835847826
12925494 130 18335140856958949933
13944108 23 18192716648514367580
14068700 686 18338242656560365507
14223995 32 18411975897575836064
14251764 75 18342468062153673817
14429114 114 18410572903490144785
15198563 99 17262738581487526390
15400415 2 18411418457596411633
15513586 35 16160463275030374836
15530120 55 17845349121620848373
15721738 15 18272929405936952417
16067689 134 17190954753028869561
16988056 13 18196655086375176246
19053607 189 18339067251098841777
21033648 144 17697334158906174886
21033648 29 18196093472129723146
21049683 118 17168993284058157491
21388113 180 18340488966687746145
21857420 4 17909843037474174406
23569914 2 17316723692162792661
2838139 119 18411978070517765535
3418910 222 16319501129830270560
376196 1 18408042918101736299
437795 171 18262227842516780653
5047190 47 17977935792936574885
508706 21 17623287582503025482
5219985 13 18339923839122615183
5223283 242 17338173905552884671
550186 72 17977665639287232703
7288768 16 18041837453693311779
7808743 9 17978510068311547306
9849439 229 18338510970965412394

> <PUBCHEM_SHAPE_MULTIPOLES>
584.83
16.78
8.91
1.24
27.9
0.81
-0.15
32.26
2.85
-1.43
-0.08
-0.89
0.03
3.11

> <PUBCHEM_SHAPE_SELFOVERLAP>
1240.465

> <PUBCHEM_SHAPE_VOLUME>
324.9

> <PUBCHEM_COORDINATE_TYPE>
2
5
10

$$$$
127028206
  -OEChem-05102415043D

 54 57  0     1  0  0  0  0  0999 V2000
   -2.5687   -1.6354   -1.3432 O   0  0  0  0  0  0  0  0  0  0  0  0
    4.4936    0.9169    0.2695 O   0  0  0  0  0  0  0  0  0  0  0  0
    5.6585    2.8724    0.6134 O   0  0  0  0  0  0  0  0  0  0  0  0
   -3.0962   -1.0128    0.8621 N   0  0  0  0  0  0  0  0  0  0  0  0
    0.4416   -4.2566    0.1967 N   0  0  0  0  0  0  0  0  0  0  0  0
   -8.5065    1.9392   -0.9535 N   0  0  0  0  0  0  0  0  0  0  0  0
    9.1605    0.8823   -0.6672 N   0  0  0  0  0  0  0  0  0  0  0  0
   -1.0612   -2.2879    0.4310 C   0  0  2  0  0  0  0  0  0  0  0  0
    0.0773   -1.2821    0.5002 C   0  0  0  0  0  0  0  0  0  0  0  0
   -0.6966   -3.5471   -0.3818 C   0  0  0  0  0  0  0  0  0  0  0  0
   -2.3225   -1.6210   -0.1404 C   0  0  0  0  0  0  0  0  0  0  0  0
    0.6224   -0.9294    1.7348 C   0  0  0  0  0  0  0  0  0  0  0  0
    0.5783   -0.7144   -0.6713 C   0  0  0  0  0  0  0  0  0  0  0  0
    2.1696    0.5588    0.6264 C   0  0  0  0  0  0  0  0  0  0  0  0
    1.6686   -0.0091    1.7978 C   0  0  0  0  0  0  0  0  0  0  0  0
    1.6245    0.2060   -0.6081 C   0  0  0  0  0  0  0  0  0  0  0  0
   -4.2981   -0.3177    0.7228 C   0  0  0  0  0  0  0  0  0  0  0  0
    3.2887    1.5425    0.6933 C   0  0  0  0  0  0  0  0  0  0  0  0
   -4.8738   -0.1676   -0.5401 C   0  0  0  0  0  0  0  0  0  0  0  0
   -6.0824    0.5305   -0.6961 C   0  0  0  0  0  0  0  0  0  0  0  0
   -6.7094    1.0796    0.4416 C   0  0  0  0  0  0  0  0  0  0  0  0
   -4.9205    0.2262    1.8441 C   0  0  0  0  0  0  0  0  0  0  0  0
   -6.1213    0.9224    1.7075 C   0  0  0  0  0  0  0  0  0  0  0  0
   -6.6845    0.6978   -1.9485 C   0  0  0  0  0  0  0  0  0  0  0  0
   -7.9094    1.7666    0.2473 C   0  0  0  0  0  0  0  0  0  0  0  0
   -7.8781    1.3999   -2.0197 C   0  0  0  0  0  0  0  0  0  0  0  0
    5.6078    1.6992    0.2781 C   0  0  0  0  0  0  0  0  0  0  0  0
    6.7923    0.9322   -0.1835 C   0  0  0  0  0  0  0  0  0  0  0  0
    6.6810   -0.4034   -0.5545 C   0  0  0  0  0  0  0  0  0  0  0  0
    8.0432    1.5235   -0.2573 C   0  0  0  0  0  0  0  0  0  0  0  0
    7.8079   -1.0967   -0.9816 C   0  0  0  0  0  0  0  0  0  0  0  0
    9.0134   -0.4147   -1.0197 C   0  0  0  0  0  0  0  0  0  0  0  0
   -1.3025   -2.6245    1.4497 H   0  0  0  0  0  0  0  0  0  0  0  0
   -1.5591   -4.2239   -0.4119 H   0  0  0  0  0  0  0  0  0  0  0  0
   -0.4607   -3.2961   -1.4221 H   0  0  0  0  0  0  0  0  0  0  0  0
    0.2429   -1.3637    2.6557 H   0  0  0  0  0  0  0  0  0  0  0  0
    0.1677   -0.9739   -1.6430 H   0  0  0  0  0  0  0  0  0  0  0  0
   -2.7437   -1.0749    1.8148 H   0  0  0  0  0  0  0  0  0  0  0  0
    2.0848    0.2547    2.7665 H   0  0  0  0  0  0  0  0  0  0  0  0
    2.0077    0.6417   -1.5272 H   0  0  0  0  0  0  0  0  0  0  0  0
    0.6025   -5.1178   -0.3238 H   0  0  0  0  0  0  0  0  0  0  0  0
    0.2209   -4.5361    1.1516 H   0  0  0  0  0  0  0  0  0  0  0  0
    3.0647    2.3992    0.0450 H   0  0  0  0  0  0  0  0  0  0  0  0
    3.4118    1.9207    1.7158 H   0  0  0  0  0  0  0  0  0  0  0  0
   -4.4356   -0.5705   -1.4433 H   0  0  0  0  0  0  0  0  0  0  0  0
   -4.4816    0.1160    2.8326 H   0  0  0  0  0  0  0  0  0  0  0  0
   -6.5940    1.3406    2.5932 H   0  0  0  0  0  0  0  0  0  0  0  0
   -6.2396    0.2931   -2.8525 H   0  0  0  0  0  0  0  0  0  0  0  0
   -8.4439    2.2138    1.0810 H   0  0  0  0  0  0  0  0  0  0  0  0
   -8.3752    1.5507   -2.9725 H   0  0  0  0  0  0  0  0  0  0  0  0
    5.7361   -0.9382   -0.5247 H   0  0  0  0  0  0  0  0  0  0  0  0
    8.2003    2.5620    0.0175 H   0  0  0  0  0  0  0  0  0  0  0  0
    7.7452   -2.1382   -1.2756 H   0  0  0  0  0  0  0  0  0  0  0  0
    9.9219   -0.9104   -1.3455 H   0  0  0  0  0  0  0  0  0  0  0  0
  1 11  2  0  0  0  0
  2 18  1  0  0  0  0
  2 27  1  0  0  0  0
  3 27  2  0  0  0  0
  4 11  1  0  0  0  0
  4 17  1  0  0  0  0
  4 38  1  0  0  0  0
  5 10  1  0  0  0  0
  5 41  1  0  0  0  0
  5 42  1  0  0  0  0
  6 25  2  0  0  0  0
  6 26  1  0  0  0  0
  7 30  1  0  0  0  0
  7 32  2  0  0  0  0
  8  9  1  0  0  0  0
  8 10  1  0  0  0  0
  8 11  1  0  0  0  0
  8 33  1  0  0  0  0
  9 12  2  0  0  0  0
  9 13  1  0  0  0  0
 10 34  1  0  0  0  0
 10 35  1  0  0  0  0
 12 15  1  0  0  0  0
 12 36  1  0  0  0  0
 13 16  2  0  0  0  0
 13 37  1  0  0  0  0
 14 15  2  0  0  0  0
 14 16  1  0  0  0  0
 14 18  1  0  0  0  0
 15 39  1  0  0  0  0
 16 40  1  0  0  0  0
 17 19  2  0  0  0  0
 17 22  1  0  0  0  0
 18 43  1  0  0  0  0
 18 44  1  0  0  0  0
 19 20  1  0  0  0  0
 19 45  1  0  0  0  0
 20 21  2  0  0  0  0
 20 24  1  0  0  0  0
 21 23  1  0  0  0  0
 21 25  1  0  0  0  0
 22 23  2  0  0  0  0
 22 46  1  0  0  0  0
 23 47  1  0  0  0  0
 24 26  2  0  0  0  0
 24 48  1  0  0  0  0
 25 49  1  0  0  0  0
 26 50  1  0  0  0  0
 27 28  1  0  0  0  0
 28 29  1  0  0  0  0
 28 30  2  0  0  0  0
 29 31  2  0  0  0  0
 29 51  1  0  0  0  0
 30 52  1  0  0  0  0
 31 32  1  0  0  0  0
 31 53  1  0  0  0  0
 32 54  1  0  0  0  0
M  END
> <PUBCHEM_COMPOUND_CID>
127028206

> <PUBCHEM_CONFORMER_RMSD>
1

> <PUBCHEM_CONFORMER_DIVERSEORDER>
1
139
165
148
162
25
45
17
126
66
19
65
235
109
41
141
133
240
80
157
63
213
155
104
161
174
182
211
185
84
220
200
180
49
61
90
55
82
230
205
99
231
197
68
138
60
164
122
199
183
54
221
20
238
186
241
147
170
86
173
56
237
43
77
59
81
48
223
168
107
142
31
227
216
178
143
76
78
132
111
51
79
8
209
236
96
102
52
159
163
135
215
108
217
123
29
44
127
232
202
204
34
201
14
207
101
5
189
203
187
210
38
219
83
121
98
67
69
175
160
11
21
118
94
10
140
30
9
177
131
171
191
198
145
89
62
196
87
153
75
208
125
151
15
37
39
36
103
134
47
144
233
136
95
92
97
226
35
150
167
149
169
229
117
113
218
72
88
71
222
224
128
26
190
214
130
154
206
112
46
74
93
114
64
32
228
146
176
239
225
33
53
137
27
181
73
24
40
152
6
106
158
85
166
58
156
234
115
23
7
28
188
70
192
22
105
124
212
184
13
110
129
18
91
119
57
172
4
100
116
12
16
2
42
120
179
50
194
193
195
3

> <PUBCHEM_MMFF94_PARTIAL_CHARGES>
47
1 -0.57
10 0.27
11 0.57
12 -0.15
13 -0.15
14 -0.14
15 -0.15
16 -0.15
17 0.12
18 0.42
19 -0.15
2 -0.43
22 -0.15
23 -0.15
24 -0.15
25 0.16
26 0.16
27 0.63
28 0.09
29 -0.15
3 -0.57
30 0.16
31 -0.15
32 0.16
36 0.15
37 0.15
38 0.37
39 0.15
4 -0.55
40 0.15
41 0.36
42 0.36
45 0.15
46 0.15
47 0.15
48 0.15
49 0.15
5 -0.99
50 0.15
51 0.15
52 0.15
53 0.15
54 0.15
6 -0.62
7 -0.62
8 0.2
9 -0.14

> <PUBCHEM_EFFECTIVE_ROTOR_COUNT>
9

> <PUBCHEM_PHARMACOPHORE_FEATURES>
11
1 1 acceptor
1 3 acceptor
1 4 donor
1 5 cation
1 5 donor
1 6 acceptor
1 7 acceptor
6 17 19 20 21 22 23 rings
6 6 20 21 24 25 26 rings
6 7 28 29 30 31 32 rings
6 9 12 13 14 15 16 rings

> <PUBCHEM_HEAVY_ATOM_COUNT>
32

> <PUBCHEM_ATOM_DEF_STEREO_COUNT>
0

> <PUBCHEM_ATOM_UDEF_STEREO_COUNT>
1

> <PUBCHEM_BOND_DEF_STEREO_COUNT>
0

> <PUBCHEM_BOND_UDEF_STEREO_COUNT>
0

> <PUBCHEM_ISOTOPIC_ATOM_COUNT>
0

> <PUBCHEM_COMPONENT_COUNT>
1

> <PUBCHEM_CACTVS_TAUTO_COUNT>
27

> <PUBCHEM_CONFORMER_ID>
07924BEE00000001

> <PUBCHEM_MMFF94_ENERGY>
94.9573

> <PUBCHEM_FEATURE_SELFOVERLAP>
55.85

> <PUBCHEM_SHAPE_FINGERPRINT>
10 15 16298381349437190033
10483366 6 18272933812873266136
10669705 176 18342736356028960927
10670039 82 17775567516525965049
10674148 151 17895193338362319360
10835480 77 17986953141235095800
11135926 11 18340496590739662547
11211813 128 7997976786767261832
11273773 42 17917716769712065657
11297010 23 18201436965391636550
12098696 120 18407760330648633968
12559415 135 16200154270651317456
13150687 139 18342179951046646414
13914758 101 17274832346151048794
14117953 113 18334574638024142805
14150023 24 18259982673842008298
14856354 85 15936693773675265946
15064981 113 17203323373728861861
15183329 4 18273215300940470322
15320295 40 15339122321457393736
15350500 55 17531236220281857053
15392192 104 15140683583209205433
15439362 3 18338797815010432683
15461852 350 18261108613088838735
15538507 19 8646474225229090605
1577012 14 18041268933177525787
18335252 114 18272930531687452984
19315958 150 13984927490992993809
20156587 128 17059772214519158509
2026 5 12895357689994418045
20721686 146 17604140437908760221
21033648 144 18410292476912573111
21585482 111 18190457161364129965
21792938 703 9150584896369720725
21814621 53 18265900340491390496
21987483 16 10664103338048939700
22002106 203 10231168465833405965
23559900 14 18058449988658385216
23576562 1 18266168625434208525
249057 3 18412548738885970832
2747138 104 9079122180685969962
2838139 119 17775290477886441617
3552219 110 12685092566739816734
3633792 109 18272938198314566850
4144715 1 17975135654230139968
4149490 64 12031204261358020293
4169191 19 18410858720420082267
437795 83 18269834234304316021
4408954 64 15217560499809904274
474113 269 16988567854309710990
4760202 70 12252770178129242034
54039377 194 11239994564650815801
5719381 82 13686292509485794397
57303763 176 17773323326898598816
59682541 35 8430311325681398660
6009941 240 18336834181906143730
6201320 82 18191863419799007213
6394761 36 18342741815011365972
9689198 14 17530967994688235048
9953998 17 14490191614002169961
9962374 69 8862360017717482465

> <PUBCHEM_SHAPE_MULTIPOLES>
621.01
29.79
2.86
1.59
20.41
2.66
-0.06
-21.24
11.38
0.35
0.06
-2.53
-0.23
1.46

> <PUBCHEM_SHAPE_SELFOVERLAP>
1356.923

> <PUBCHEM_SHAPE_VOLUME>
332.8

> <PUBCHEM_COORDINATE_TYPE>
2
5
10

$$$$
127027884
  -OEChem-05102415043D

 58 61  0     1  0  0  0  0  0999 V2000
    3.6138    0.8652    0.1623 O   0  0  0  0  0  0  0  0  0  0  0  0
   -2.8169    2.4080   -1.6081 O   0  0  0  0  0  0  0  0  0  0  0  0
    2.6582   -1.2450   -0.0941 O   0  0  0  0  0  0  0  0  0  0  0  0
   -3.1574    1.2324    0.3996 N   0  0  0  0  0  0  0  0  0  0  0  0
   -0.7738    5.4416    0.5948 N   0  0  0  0  0  0  0  0  0  0  0  0
   -7.3724   -3.5949   -0.0620 N   0  0  0  0  0  0  0  0  0  0  0  0
   -1.5933    3.1046    0.3574 C   0  0  1  0  0  0  0  0  0  0  0  0
   -0.1978    2.5026    0.3045 C   0  0  0  0  0  0  0  0  0  0  0  0
   -1.6426    4.5524   -0.1722 C   0  0  0  0  0  0  0  0  0  0  0  0
   -2.5826    2.2199   -0.4177 C   0  0  0  0  0  0  0  0  0  0  0  0
    0.4595    2.3711   -0.9187 C   0  0  0  0  0  0  0  0  0  0  0  0
    0.4257    2.0837    1.4799 C   0  0  0  0  0  0  0  0  0  0  0  0
   -4.0904    0.2562    0.0481 C   0  0  0  0  0  0  0  0  0  0  0  0
    1.7403    1.8207   -0.9666 C   0  0  0  0  0  0  0  0  0  0  0  0
    1.7065    1.5332    1.4319 C   0  0  0  0  0  0  0  0  0  0  0  0
    2.3638    1.4018    0.2087 C   0  0  0  0  0  0  0  0  0  0  0  0
   -4.5536   -0.6432    1.0100 C   0  0  0  0  0  0  0  0  0  0  0  0
   -5.4917   -1.6319    0.6708 C   0  0  0  0  0  0  0  0  0  0  0  0
   -5.9615   -1.7053   -0.6569 C   0  0  0  0  0  0  0  0  0  0  0  0
   -4.5570    0.1805   -1.2621 C   0  0  0  0  0  0  0  0  0  0  0  0
   -5.4888   -0.7950   -1.6165 C   0  0  0  0  0  0  0  0  0  0  0  0
    5.0326   -1.0326   -0.0444 C   0  0  0  0  0  0  0  0  0  0  0  0
   -5.9752   -2.5479    1.6122 C   0  0  0  0  0  0  0  0  0  0  0  0
    7.4130   -0.6261    0.0270 C   0  0  0  0  0  0  0  0  0  0  0  0
    6.5795   -2.8789   -0.2318 C   0  0  0  0  0  0  0  0  0  0  0  0
    5.2704   -2.3990   -0.1932 C   0  0  0  0  0  0  0  0  0  0  0  0
    6.1039   -0.1462    0.0656 C   0  0  0  0  0  0  0  0  0  0  0  0
    3.6387   -0.5217   -0.0031 C   0  0  0  0  0  0  0  0  0  0  0  0
   -6.8935   -2.7010   -0.9565 C   0  0  0  0  0  0  0  0  0  0  0  0
    7.6508   -1.9925   -0.1217 C   0  0  0  0  0  0  0  0  0  0  0  0
   -6.9004   -3.4944    1.1989 C   0  0  0  0  0  0  0  0  0  0  0  0
    8.5586    0.3215    0.1445 C   0  0  0  0  0  0  0  0  0  0  0  0
    6.8339   -4.3399   -0.3908 C   0  0  0  0  0  0  0  0  0  0  0  0
   -1.9281    3.1376    1.4043 H   0  0  0  0  0  0  0  0  0  0  0  0
   -1.3584    4.6038   -1.2297 H   0  0  0  0  0  0  0  0  0  0  0  0
   -2.6714    4.9262   -0.1070 H   0  0  0  0  0  0  0  0  0  0  0  0
   -0.0082    2.6896   -1.8460 H   0  0  0  0  0  0  0  0  0  0  0  0
   -0.0736    2.1797    2.4402 H   0  0  0  0  0  0  0  0  0  0  0  0
   -2.8597    1.2116    1.3726 H   0  0  0  0  0  0  0  0  0  0  0  0
    2.2470    1.7214   -1.9227 H   0  0  0  0  0  0  0  0  0  0  0  0
    2.1868    1.2094    2.3513 H   0  0  0  0  0  0  0  0  0  0  0  0
   -4.1838   -0.5776    2.0322 H   0  0  0  0  0  0  0  0  0  0  0  0
   -0.8435    6.3861    0.2179 H   0  0  0  0  0  0  0  0  0  0  0  0
    0.1992    5.1629    0.4774 H   0  0  0  0  0  0  0  0  0  0  0  0
   -4.2446    0.8380   -2.0609 H   0  0  0  0  0  0  0  0  0  0  0  0
   -5.8431   -0.8415   -2.6439 H   0  0  0  0  0  0  0  0  0  0  0  0
   -5.6425   -2.5297    2.6455 H   0  0  0  0  0  0  0  0  0  0  0  0
    4.4408   -3.0965   -0.2816 H   0  0  0  0  0  0  0  0  0  0  0  0
    5.9514    0.9233    0.1840 H   0  0  0  0  0  0  0  0  0  0  0  0
   -7.2960   -2.8125   -1.9596 H   0  0  0  0  0  0  0  0  0  0  0  0
    8.6712   -2.3673   -0.1519 H   0  0  0  0  0  0  0  0  0  0  0  0
   -7.2985   -4.2215    1.8992 H   0  0  0  0  0  0  0  0  0  0  0  0
    8.3375    1.2682   -0.3602 H   0  0  0  0  0  0  0  0  0  0  0  0
    9.4628   -0.0854   -0.3208 H   0  0  0  0  0  0  0  0  0  0  0  0
    8.7712    0.5247    1.1988 H   0  0  0  0  0  0  0  0  0  0  0  0
    6.0399   -4.9318    0.0771 H   0  0  0  0  0  0  0  0  0  0  0  0
    7.7748   -4.6327    0.0874 H   0  0  0  0  0  0  0  0  0  0  0  0
    6.8855   -4.5986   -1.4530 H   0  0  0  0  0  0  0  0  0  0  0  0
  1 16  1  0  0  0  0
  1 28  1  0  0  0  0
  2 10  2  0  0  0  0
  3 28  2  0  0  0  0
  4 10  1  0  0  0  0
  4 13  1  0  0  0  0
  4 39  1  0  0  0  0
  5  9  1  0  0  0  0
  5 43  1  0  0  0  0
  5 44  1  0  0  0  0
  6 29  2  0  0  0  0
  6 31  1  0  0  0  0
  7  8  1  0  0  0  0
  7  9  1  0  0  0  0
  7 10  1  0  0  0  0
  7 34  1  0  0  0  0
  8 11  2  0  0  0  0
  8 12  1  0  0  0  0
  9 35  1  0  0  0  0
  9 36  1  0  0  0  0
 11 14  1  0  0  0  0
 11 37  1  0  0  0  0
 12 15  2  0  0  0  0
 12 38  1  0  0  0  0
 13 17  2  0  0  0  0
 13 20  1  0  0  0  0
 14 16  2  0  0  0  0
 14 40  1  0  0  0  0
 15 16  1  0  0  0  0
 15 41  1  0  0  0  0
 17 18  1  0  0  0  0
 17 42  1  0  0  0  0
 18 19  2  0  0  0  0
 18 23  1  0  0  0  0
 19 21  1  0  0  0  0
 19 29  1  0  0  0  0
 20 21  2  0  0  0  0
 20 45  1  0  0  0  0
 21 46  1  0  0  0  0
 22 26  2  0  0  0  0
 22 27  1  0  0  0  0
 22 28  1  0  0  0  0
 23 31  2  0  0  0  0
 23 47  1  0  0  0  0
 24 27  2  0  0  0  0
 24 30  1  0  0  0  0
 24 32  1  0  0  0  0
 25 26  1  0  0  0  0
 25 30  2  0  0  0  0
 25 33  1  0  0  0  0
 26 48  1  0  0  0  0
 27 49  1  0  0  0  0
 29 50  1  0  0  0  0
 30 51  1  0  0  0  0
 31 52  1  0  0  0  0
 32 53  1  0  0  0  0
 32 54  1  0  0  0  0
 32 55  1  0  0  0  0
 33 56  1  0  0  0  0
 33 57  1  0  0  0  0
 33 58  1  0  0  0  0
M  END
> <PUBCHEM_COMPOUND_CID>
127027884

> <PUBCHEM_CONFORMER_RMSD>
1.2

> <PUBCHEM_CONFORMER_DIVERSEORDER>
1
27
71
7
80
32
57
59
21
36
53
52
40
76
78
61
22
92
51
30
18
83
31
10
93
88
48
67
42
24
28
47
58
79
2
82
89
86
68
34
13
14
11
74
37
16
44
5
70
45
65
56
46
8
63
55
17
19
29
49
84
91
43
66
15
39
90
50
62
87
20
60
38
41
72
6
81
69
3
75
85
12
64
35
73
26
25
33
9
23
54
77
4

> <PUBCHEM_MMFF94_PARTIAL_CHARGES>
47
1 -0.23
10 0.57
11 -0.15
12 -0.15
13 0.12
14 -0.15
15 -0.15
16 0.08
17 -0.15
2 -0.57
20 -0.15
21 -0.15
22 0.09
23 -0.15
24 -0.14
25 -0.14
26 -0.15
27 -0.15
28 0.63
29 0.16
3 -0.57
30 -0.15
31 0.16
32 0.14
33 0.14
37 0.15
38 0.15
39 0.37
4 -0.55
40 0.15
41 0.15
42 0.15
43 0.36
44 0.36
45 0.15
46 0.15
47 0.15
48 0.15
49 0.15
5 -0.99
50 0.15
51 0.15
52 0.15
6 -0.62
7 0.2
8 -0.14
9 0.27

> <PUBCHEM_EFFECTIVE_ROTOR_COUNT>
8

> <PUBCHEM_PHARMACOPHORE_FEATURES>
10
1 2 acceptor
1 3 acceptor
1 4 donor
1 5 cation
1 5 donor
1 6 acceptor
6 13 17 18 19 20 21 rings
6 22 24 25 26 27 30 rings
6 6 18 19 23 29 31 rings
6 8 11 12 14 15 16 rings

> <PUBCHEM_HEAVY_ATOM_COUNT>
33

> <PUBCHEM_ATOM_DEF_STEREO_COUNT>
0

> <PUBCHEM_ATOM_UDEF_STEREO_COUNT>
1

> <PUBCHEM_BOND_DEF_STEREO_COUNT>
0

> <PUBCHEM_BOND_UDEF_STEREO_COUNT>
0

> <PUBCHEM_ISOTOPIC_ATOM_COUNT>
0

> <PUBCHEM_COMPONENT_COUNT>
1

> <PUBCHEM_CACTVS_TAUTO_COUNT>
60

> <PUBCHEM_CONFORMER_ID>
07924AAC00000001

> <PUBCHEM_MMFF94_ENERGY>
106.9917

> <PUBCHEM_FEATURE_SELFOVERLAP>
50.774

> <PUBCHEM_SHAPE_FINGERPRINT>
10049733 31 17462869884416409379
10319688 140 18121502616023634597
10391435 84 18336816520778965712
10533779 1 9439131905557193363
10554248 39 13840270226815732416
11059845 2 17702408190699935681
11409948 35 18193561293622630931
11410812 94 16443612529099019308
11463208 1 17984149158761980022
11497681 19 18410295766857366054
117089 54 18335426798322171763
11756154 5 18408879667845812010
11761917 116 18411705417604510230
12013929 27 18187931621624821758
12106331 60 18339348678782886806
12841400 136 18408885170073412547
13008946 62 15073077757840572831
1361 4 18338517435566588410
1361 87 17459474523689217067
13631057 29 18409165481134994120
13782708 43 18200028431431168250
14168556 18 18412259567612826008
14359421 15 17822281419015302979
14429380 30 18410013234231841399
14931854 50 17675918803080156579
14950920 106 16128082447270692889
15467298 65 17972875852735263706
15510800 12 18334852870294737315
15773216 30 18046632484069028092
15803439 3 16956729145216714797
16096371 109 17483943145400767881
17492 89 18409730659923682644
19246450 95 17775018852023724995
20505436 4 17244988129945507561
208703 8 18409726283515200407
21033650 10 16805875218093974325
21196832 93 18334015008175080874
21307412 95 18335127667256770365
21344244 246 18042409200315158220
21796203 349 17489307529092476084
24204213 62 17539701613797853236
25025965 108 17986368045597509439
270888 7 9151181947877265705
2747138 104 18343015589127649632
2748736 6 9007061231936121191
2835820 33 18409725184973679282
2838139 119 8502361227074313648
2851757 15 9223231853739299345
32027 91 18267300023188846387
3627633 1 18410292467600887109
3862424 121 17751378367968093483
393628 179 11458421388103178502
397638 26 10159699088518579542
4073 2 18194966241168543152
4330586 98 17024040434871649707
439807 62 18409168818329461639
4461854 278 17774726458523639662
44880568 143 17385435527381703300
474113 269 18201146759601098351
5718773 13 18410855477387483603
6431902 208 18411979126694475166
6673363 416 18341621413333575796
7970288 3 18338797918162877231
9980921 52 17698987794678324335
999808 66 18413671305286320711

> <PUBCHEM_SHAPE_MULTIPOLES>
646.57
24.74
6
1.24
17.69
2.68
0.03
-35.56
-0.81
-3.81
0.44
-1.96
0
1.86

> <PUBCHEM_SHAPE_SELFOVERLAP>
1413.769

> <PUBCHEM_SHAPE_VOLUME>
348

> <PUBCHEM_COORDINATE_TYPE>
2
5
10

$$$$
127031223
  -OEChem-05102415043D

 39 41  0     1  0  0  0  0  0999 V2000
    4.6031   -1.4172   -2.1968 F   0  0  0  0  0  0  0  0  0  0  0  0
    5.1586   -3.0429   -0.0697 F   0  0  0  0  0  0  0  0  0  0  0  0
    0.5822    1.8622   -1.3198 O   0  0  0  0  0  0  0  0  0  0  0  0
   -0.3687    0.8041    0.5525 N   0  0  0  0  0  0  0  0  0  0  0  0
    3.8826    3.0506    1.1142 N   0  0  0  0  0  0  0  0  0  0  0  0
   -6.4947   -0.9586   -0.2527 N   0  0  0  0  0  0  0  0  0  0  0  0
    1.9514    1.5529    0.6488 C   0  0  1  0  0  0  0  0  0  0  0  0
    2.8145    0.3158    0.4557 C   0  0  0  0  0  0  0  0  0  0  0  0
    2.6888    2.8604    0.2942 C   0  0  0  0  0  0  0  0  0  0  0  0
    0.6583    1.4311   -0.1726 C   0  0  0  0  0  0  0  0  0  0  0  0
   -1.6710    0.5227    0.1376 C   0  0  0  0  0  0  0  0  0  0  0  0
    3.3228    0.0104   -0.8070 C   0  0  0  0  0  0  0  0  0  0  0  0
    3.0983   -0.5135    1.5409 C   0  0  0  0  0  0  0  0  0  0  0  0
   -3.8727   -0.3985    0.6069 C   0  0  0  0  0  0  0  0  0  0  0  0
   -2.5594   -0.1076    1.0107 C   0  0  0  0  0  0  0  0  0  0  0  0
   -4.2845   -0.0449   -0.6947 C   0  0  0  0  0  0  0  0  0  0  0  0
   -2.0816    0.8703   -1.1472 C   0  0  0  0  0  0  0  0  0  0  0  0
   -3.3823    0.5892   -1.5648 C   0  0  0  0  0  0  0  0  0  0  0  0
    4.1149   -1.1240   -0.9844 C   0  0  0  0  0  0  0  0  0  0  0  0
    3.8902   -1.6480    1.3633 C   0  0  0  0  0  0  0  0  0  0  0  0
    4.3986   -1.9532    0.1007 C   0  0  0  0  0  0  0  0  0  0  0  0
   -4.7868   -1.0292    1.4589 C   0  0  0  0  0  0  0  0  0  0  0  0
   -5.5973   -0.3497   -1.0603 C   0  0  0  0  0  0  0  0  0  0  0  0
   -6.0654   -1.2821    0.9858 C   0  0  0  0  0  0  0  0  0  0  0  0
    1.6657    1.6265    1.7080 H   0  0  0  0  0  0  0  0  0  0  0  0
    2.0149    3.7103    0.4544 H   0  0  0  0  0  0  0  0  0  0  0  0
    2.9769    2.8857   -0.7632 H   0  0  0  0  0  0  0  0  0  0  0  0
   -0.1461    0.5071    1.5001 H   0  0  0  0  0  0  0  0  0  0  0  0
    3.1133    0.6413   -1.6660 H   0  0  0  0  0  0  0  0  0  0  0  0
    2.7092   -0.2891    2.5303 H   0  0  0  0  0  0  0  0  0  0  0  0
   -2.2307   -0.3763    2.0135 H   0  0  0  0  0  0  0  0  0  0  0  0
   -1.4526    1.3570   -1.8789 H   0  0  0  0  0  0  0  0  0  0  0  0
    4.3326    3.9274    0.8537 H   0  0  0  0  0  0  0  0  0  0  0  0
    4.5610    2.3166    0.9159 H   0  0  0  0  0  0  0  0  0  0  0  0
   -3.6878    0.8664   -2.5713 H   0  0  0  0  0  0  0  0  0  0  0  0
    4.1111   -2.2940    2.2078 H   0  0  0  0  0  0  0  0  0  0  0  0
   -4.5148   -1.3195    2.4691 H   0  0  0  0  0  0  0  0  0  0  0  0
   -5.9784   -0.1046   -2.0479 H   0  0  0  0  0  0  0  0  0  0  0  0
   -6.8022   -1.7694    1.6162 H   0  0  0  0  0  0  0  0  0  0  0  0
  1 19  1  0  0  0  0
  2 21  1  0  0  0  0
  3 10  2  0  0  0  0
  4 10  1  0  0  0  0
  4 11  1  0  0  0  0
  4 28  1  0  0  0  0
  5  9  1  0  0  0  0
  5 33  1  0  0  0  0
  5 34  1  0  0  0  0
  6 23  2  0  0  0  0
  6 24  1  0  0  0  0
  7  8  1  0  0  0  0
  7  9  1  0  0  0  0
  7 10  1  0  0  0  0
  7 25  1  0  0  0  0
  8 12  2  0  0  0  0
  8 13  1  0  0  0  0
  9 26  1  0  0  0  0
  9 27  1  0  0  0  0
 11 15  2  0  0  0  0
 11 17  1  0  0  0  0
 12 19  1  0  0  0  0
 12 29  1  0  0  0  0
 13 20  2  0  0  0  0
 13 30  1  0  0  0  0
 14 15  1  0  0  0  0
 14 16  2  0  0  0  0
 14 22  1  0  0  0  0
 15 31  1  0  0  0  0
 16 18  1  0  0  0  0
 16 23  1  0  0  0  0
 17 18  2  0  0  0  0
 17 32  1  0  0  0  0
 18 35  1  0  0  0  0
 19 21  2  0  0  0  0
 20 21  1  0  0  0  0
 20 36  1  0  0  0  0
 22 24  2  0  0  0  0
 22 37  1  0  0  0  0
 23 38  1  0  0  0  0
 24 39  1  0  0  0  0
M  END
> <PUBCHEM_COMPOUND_CID>
127031223

> <PUBCHEM_CONFORMER_RMSD>
0.8

> <PUBCHEM_CONFORMER_DIVERSEORDER>
1
57
16
47
53
99
69
82
88
59
95
89
49
71
77
83
79
6
13
4
68
87
64
78
8
67
65
23
96
17
94
45
43
86
11
72
30
62
84
10
75
81
24
3
7
32
91
48
5
31
74
58
21
15
25
60
19
98
63
42
90
80
85
76
73
101
12
9
29
28
100
97
54
14
70
92
38
61
18
34
56
33
20
55
44
52
22
93
51
36
66
41
50
35
40
2
37
46
39
26
27

> <PUBCHEM_MMFF94_PARTIAL_CHARGES>
34
1 -0.19
10 0.57
11 0.12
12 -0.15
13 -0.15
15 -0.15
17 -0.15
18 -0.15
19 0.19
2 -0.19
20 -0.15
21 0.19
22 -0.15
23 0.16
24 0.16
28 0.37
29 0.15
3 -0.57
30 0.15
31 0.15
32 0.15
33 0.36
34 0.36
35 0.15
36 0.15
37 0.15
38 0.15
39 0.15
4 -0.55
5 -0.99
6 -0.62
7 0.2
8 -0.14
9 0.27

> <PUBCHEM_EFFECTIVE_ROTOR_COUNT>
5

> <PUBCHEM_PHARMACOPHORE_FEATURES>
8
1 3 acceptor
1 4 donor
1 5 cation
1 5 donor
1 6 acceptor
6 11 14 15 16 17 18 rings
6 6 14 16 22 23 24 rings
6 8 12 13 19 20 21 rings

> <PUBCHEM_HEAVY_ATOM_COUNT>
24

> <PUBCHEM_ATOM_DEF_STEREO_COUNT>
0

> <PUBCHEM_ATOM_UDEF_STEREO_COUNT>
1

> <PUBCHEM_BOND_DEF_STEREO_COUNT>
0

> <PUBCHEM_BOND_UDEF_STEREO_COUNT>
0

> <PUBCHEM_ISOTOPIC_ATOM_COUNT>
0

> <PUBCHEM_COMPONENT_COUNT>
1

> <PUBCHEM_CACTVS_TAUTO_COUNT>
27

> <PUBCHEM_CONFORMER_ID>
079257B700000001

> <PUBCHEM_MMFF94_ENERGY>
65.313

> <PUBCHEM_FEATURE_SELFOVERLAP>
40.623

> <PUBCHEM_SHAPE_FINGERPRINT>
10319926 262 14117522034127952868
10369192 42 17825665831785590476
10498660 4 11674892082043277590
10554248 39 13335828658626625435
10912923 1 17346038986919299193
10928967 22 18187363216456266395
11059845 2 15622879754878552154
11128504 68 14490191609443367491
11595378 159 16773806904501432585
12107183 9 18056771927228993977
12363563 72 18339643322392804584
12422481 6 17131565933765263889
12616971 3 17561080324244190733
12633257 1 15626212520592881498
13073987 5 18342741858082670433
13533116 47 18271526489582028833
13782708 43 18334856160846646003
13914758 101 17989203708582804185
13955234 65 18199744903112294672
14211702 104 18194965369412085919
14251758 9 17917715639518364297
14251764 30 18058463006230187806
14341114 328 15123213451661340354
14347424 109 18272936025034891113
14528608 73 13262398869154205851
14910302 57 17603576444194071039
15142526 21 16839361084677204312
15183329 4 16588022377569451383
15575132 122 13118271548297386439
15664445 248 16443353134327930140
17349148 13 17989212555518991359
17844677 252 18411417306808251329
17870717 6 17313103047606102563
1813 80 18130794408706687748
18222031 100 18202003200957745142
193927 3 18341898458821065867
20369508 70 18335696140026119208
20645477 70 18410851088004649728
20693207 138 17967525766276037925
20715895 44 12319468640792799251
21033650 10 16081645552529101900
21279426 13 18041547071724367493
21344244 78 17561357383620339288
21682296 61 18410576150490760255
22061861 79 18334853935736633815
2215653 11 18040709278070551687
2303208 19 17968099750733523035
23081809 10 17274825796626719641
23559900 14 17531248387401648525
239999 70 18187362181611390152
312423 11 18343029882119863065
3298306 158 17968647238557395555
3421961 26 18411416215844145856
345986 75 17917992733079580256
34797466 226 17168150087098151381
44317340 157 8430322355162981517
46194498 28 17313671545876451916
465052 167 18412830178780399806
5104073 3 18411133628513513337
543368 44 12829496965239278007
6823239 73 17894909654733240328
7808743 9 10590601037155332338
7970288 3 18269275673184803814
8863177 126 18334581290880790243
960060 61 17458067057840937030

> <PUBCHEM_SHAPE_MULTIPOLES>
458.55
14.74
2.53
1.58
12.69
0.57
0.3
-8.89
0.52
-4.82
-0.39
-0.38
-0.19
1.9

> <PUBCHEM_SHAPE_SELFOVERLAP>
1002.738

> <PUBCHEM_SHAPE_VOLUME>
248.3

> <PUBCHEM_COORDINATE_TYPE>
2
5
10

$$$$
86270887
  -OEChem-05102415043D

 39 41  0     1  0  0  0  0  0999 V2000
    7.1068    2.0461   -0.3491 Cl  0  0  0  0  0  0  0  0  0  0  0  0
    1.0367    0.5699    1.1232 O   0  0  0  0  0  0  0  0  0  0  0  0
   -0.3597   -0.7497   -0.2327 N   0  0  0  0  0  0  0  0  0  0  0  0
    1.1477   -3.4741    0.3693 N   0  0  0  0  0  0  0  0  0  0  0  0
   -6.5632    0.9097   -0.0188 N   0  0  0  0  0  0  0  0  0  0  0  0
    2.0350   -1.2130   -0.1693 C   0  0  1  0  0  0  0  0  0  0  0  0
    3.3144   -0.3921   -0.2143 C   0  0  0  0  0  0  0  0  0  0  0  0
    2.1655   -2.4800    0.7007 C   0  0  0  0  0  0  0  0  0  0  0  0
    0.8656   -0.3464    0.3239 C   0  0  0  0  0  0  0  0  0  0  0  0
   -1.6261   -0.2036   -0.0199 C   0  0  0  0  0  0  0  0  0  0  0  0
    4.1460   -0.3337    0.9040 C   0  0  0  0  0  0  0  0  0  0  0  0
    3.6561    0.3029   -1.3746 C   0  0  0  0  0  0  0  0  0  0  0  0
   -4.0180   -0.2100   -0.4613 C   0  0  0  0  0  0  0  0  0  0  0  0
   -2.7374   -0.7496   -0.6645 C   0  0  0  0  0  0  0  0  0  0  0  0
   -4.1682    0.8930    0.4044 C   0  0  0  0  0  0  0  0  0  0  0  0
   -1.7787    0.8859    0.8345 C   0  0  0  0  0  0  0  0  0  0  0  0
   -3.0431    1.4343    1.0480 C   0  0  0  0  0  0  0  0  0  0  0  0
    5.3193    0.4194    0.8622 C   0  0  0  0  0  0  0  0  0  0  0  0
    4.8293    1.0560   -1.4164 C   0  0  0  0  0  0  0  0  0  0  0  0
    5.6610    1.1141   -0.2980 C   0  0  0  0  0  0  0  0  0  0  0  0
   -5.1515   -0.7351   -1.0927 C   0  0  0  0  0  0  0  0  0  0  0  0
   -5.4564    1.4021    0.5819 C   0  0  0  0  0  0  0  0  0  0  0  0
   -6.3812   -0.1462   -0.8403 C   0  0  0  0  0  0  0  0  0  0  0  0
    1.8276   -1.5271   -1.2026 H   0  0  0  0  0  0  0  0  0  0  0  0
    3.1452   -2.9498    0.5530 H   0  0  0  0  0  0  0  0  0  0  0  0
    2.0676   -2.2365    1.7649 H   0  0  0  0  0  0  0  0  0  0  0  0
   -0.3334   -1.5429   -0.8697 H   0  0  0  0  0  0  0  0  0  0  0  0
    3.9010   -0.8479    1.8282 H   0  0  0  0  0  0  0  0  0  0  0  0
    3.0157    0.2681   -2.2518 H   0  0  0  0  0  0  0  0  0  0  0  0
   -2.6097   -1.6014   -1.3309 H   0  0  0  0  0  0  0  0  0  0  0  0
   -0.9680    1.3637    1.3661 H   0  0  0  0  0  0  0  0  0  0  0  0
    1.3040   -4.3152    0.9232 H   0  0  0  0  0  0  0  0  0  0  0  0
    1.2449   -3.7520   -0.6064 H   0  0  0  0  0  0  0  0  0  0  0  0
   -3.1459    2.2852    1.7177 H   0  0  0  0  0  0  0  0  0  0  0  0
    5.9558    0.4594    1.7425 H   0  0  0  0  0  0  0  0  0  0  0  0
    5.0825    1.5932   -2.3269 H   0  0  0  0  0  0  0  0  0  0  0  0
   -5.0845   -1.5833   -1.7671 H   0  0  0  0  0  0  0  0  0  0  0  0
   -5.6418    2.2505    1.2351 H   0  0  0  0  0  0  0  0  0  0  0  0
   -7.2828   -0.5246   -1.3110 H   0  0  0  0  0  0  0  0  0  0  0  0
  1 20  1  0  0  0  0
  2  9  2  0  0  0  0
  3  9  1  0  0  0  0
  3 10  1  0  0  0  0
  3 27  1  0  0  0  0
  4  8  1  0  0  0  0
  4 32  1  0  0  0  0
  4 33  1  0  0  0  0
  5 22  2  0  0  0  0
  5 23  1  0  0  0  0
  6  7  1  0  0  0  0
  6  8  1  0  0  0  0
  6  9  1  0  0  0  0
  6 24  1  0  0  0  0
  7 11  2  0  0  0  0
  7 12  1  0  0  0  0
  8 25  1  0  0  0  0
  8 26  1  0  0  0  0
 10 14  2  0  0  0  0
 10 16  1  0  0  0  0
 11 18  1  0  0  0  0
 11 28  1  0  0  0  0
 12 19  2  0  0  0  0
 12 29  1  0  0  0  0
 13 14  1  0  0  0  0
 13 15  2  0  0  0  0
 13 21  1  0  0  0  0
 14 30  1  0  0  0  0
 15 17  1  0  0  0  0
 15 22  1  0  0  0  0
 16 17  2  0  0  0  0
 16 31  1  0  0  0  0
 17 34  1  0  0  0  0
 18 20  2  0  0  0  0
 18 35  1  0  0  0  0
 19 20  1  0  0  0  0
 19 36  1  0  0  0  0
 21 23  2  0  0  0  0
 21 37  1  0  0  0  0
 22 38  1  0  0  0  0
 23 39  1  0  0  0  0
M  END
> <PUBCHEM_COMPOUND_CID>
86270887

> <PUBCHEM_CONFORMER_RMSD>
0.8

> <PUBCHEM_CONFORMER_DIVERSEORDER>
1
6
39
24
25
32
4
31
35
38
10
34
29
33
15
14
11
8
21
28
26
19
5
27
23
36
3
17
12
9
22
18
7
13
37
30
20
2
16

> <PUBCHEM_MMFF94_PARTIAL_CHARGES>
34
1 -0.18
10 0.12
11 -0.15
12 -0.15
14 -0.15
16 -0.15
17 -0.15
18 -0.15
19 -0.15
2 -0.57
20 0.18
21 -0.15
22 0.16
23 0.16
27 0.37
28 0.15
29 0.15
3 -0.55
30 0.15
31 0.15
32 0.36
33 0.36
34 0.15
35 0.15
36 0.15
37 0.15
38 0.15
39 0.15
4 -0.99
5 -0.62
6 0.2
7 -0.14
8 0.27
9 0.57

> <PUBCHEM_EFFECTIVE_ROTOR_COUNT>
5

> <PUBCHEM_PHARMACOPHORE_FEATURES>
8
1 2 acceptor
1 3 donor
1 4 cation
1 4 donor
1 5 acceptor
6 10 13 14 15 16 17 rings
6 5 13 15 21 22 23 rings
6 7 11 12 18 19 20 rings

> <PUBCHEM_HEAVY_ATOM_COUNT>
23

> <PUBCHEM_ATOM_DEF_STEREO_COUNT>
0

> <PUBCHEM_ATOM_UDEF_STEREO_COUNT>
1

> <PUBCHEM_BOND_DEF_STEREO_COUNT>
0

> <PUBCHEM_BOND_UDEF_STEREO_COUNT>
0

> <PUBCHEM_ISOTOPIC_ATOM_COUNT>
0

> <PUBCHEM_COMPONENT_COUNT>
1

> <PUBCHEM_CACTVS_TAUTO_COUNT>
20

> <PUBCHEM_CONFORMER_ID>
052463A700000001

> <PUBCHEM_MMFF94_ENERGY>
66.8614

> <PUBCHEM_FEATURE_SELFOVERLAP>
40.623

> <PUBCHEM_SHAPE_FINGERPRINT>
10 15 14779549019658319884
10090160 65 18259983751730521506
10554248 39 17912634719214228221
10595046 47 18412261705973386467
10968037 39 18131632301170819525
11405975 8 9511159864330308565
12107183 9 17405711376907412075
12236239 1 18413106143472019719
12516196 113 16272205301720961777
12616971 3 8286189562084498011
12788726 201 17560241315267819531
13533116 47 16009020632324306728
13631057 29 18265330793469110867
13673619 4 13039191394365705330
13685833 64 10735880564989600972
14251718 22 17989487424603931189
14528608 73 18343019995099307468
15183329 4 16271935895480877254
15348495 7 14562823195479520180
15788980 27 14056723448001605979
18222031 100 9295288339818024774
18335252 98 18261118491682554787
18681886 176 17203601627200447265
19319366 153 18410285887394114827
20511986 3 18339067221112464085
20554085 129 18201426013931725074
21054139 6 18340197587500912655
21150785 3 17632578279310892453
21267235 1 17703787072817347303
21298829 104 18335425651149373893
21365058 113 14405184001438777962
221357 26 15841552963935830440
2215653 11 14979953653777983309
22950370 63 10087644801773806850
2297311 6 16415481558530744737
23081809 10 18342454812174284003
23559900 14 16486964120814050201
23569917 315 18408324389274538298
239999 70 17203602697011119192
2767999 5 18260266369395477284
300161 21 18409444757241111615
3004659 81 18129665184405864134
335352 9 17917986180331272389
3472631 163 18341618174373625676
34797466 226 16486974033308808552
406291 66 12534252731890904148
4073 2 18333454265365598586
4325135 7 18202001040499881772
4340502 62 17458347420574378699
474 4 18259990387792376386
53794403 172 18127124406286958064
542803 24 18333731312309504769
543368 44 18411983568292039245
59755656 215 17489588965292713924
59755656 520 18411414038433234542
8863177 126 12247095577006284245

> <PUBCHEM_SHAPE_MULTIPOLES>
454.39
17.7
2.07
1.16
1.64
1.55
-0.12
-9.68
-3.31
-1.66
0.4
-0.34
-0.13
-1.66

> <PUBCHEM_SHAPE_SELFOVERLAP>
979.574

> <PUBCHEM_SHAPE_VOLUME>
249.4

> <PUBCHEM_COORDINATE_TYPE>
2
5
10

$$$$
91806730
  -OEChem-05102415043D

 42 44  0     1  0  0  0  0  0999 V2000
    0.9043    1.6744   -1.3256 O   0  0  0  0  0  0  0  0  0  0  0  0
   -0.1086    0.6838    0.5511 N   0  0  0  0  0  0  0  0  0  0  0  0
    4.2645    2.6847    1.1070 N   0  0  0  0  0  0  0  0  0  0  0  0
   -6.3250   -0.7271   -0.2541 N   0  0  0  0  0  0  0  0  0  0  0  0
    2.2507    1.2981    0.6470 C   0  0  1  0  0  0  0  0  0  0  0  0
    3.0413    0.0121    0.4623 C   0  0  0  0  0  0  0  0  0  0  0  0
    3.0628    2.5587    0.2860 C   0  0  0  0  0  0  0  0  0  0  0  0
    0.9538    1.2463   -0.1759 C   0  0  0  0  0  0  0  0  0  0  0  0
    3.5334   -0.3298   -0.7973 C   0  0  0  0  0  0  0  0  0  0  0  0
    3.2750   -0.8254    1.5531 C   0  0  0  0  0  0  0  0  0  0  0  0
   -1.4245    0.4756    0.1357 C   0  0  0  0  0  0  0  0  0  0  0  0
    4.2590   -1.5091   -0.9663 C   0  0  0  0  0  0  0  0  0  0  0  0
   -3.6762   -0.3142    0.6066 C   0  0  0  0  0  0  0  0  0  0  0  0
    4.0009   -2.0045    1.3843 C   0  0  0  0  0  0  0  0  0  0  0  0
   -2.3488   -0.0973    1.0109 C   0  0  0  0  0  0  0  0  0  0  0  0
    4.4926   -2.3465    0.1245 C   0  0  0  0  0  0  0  0  0  0  0  0
   -4.0652    0.0549   -0.6978 C   0  0  0  0  0  0  0  0  0  0  0  0
   -1.8125    0.8388   -1.1518 C   0  0  0  0  0  0  0  0  0  0  0  0
   -3.1267    0.6309   -1.5700 C   0  0  0  0  0  0  0  0  0  0  0  0
    4.7849   -1.8746   -2.3130 C   0  0  0  0  0  0  0  0  0  0  0  0
   -4.6263   -0.8862    1.4605 C   0  0  0  0  0  0  0  0  0  0  0  0
   -5.3928   -0.1758   -1.0638 C   0  0  0  0  0  0  0  0  0  0  0  0
   -5.9167   -1.0677    0.9868 C   0  0  0  0  0  0  0  0  0  0  0  0
    1.9682    1.3942    1.7053 H   0  0  0  0  0  0  0  0  0  0  0  0
    3.3533    2.5614   -0.7710 H   0  0  0  0  0  0  0  0  0  0  0  0
    2.4388    3.4470    0.4403 H   0  0  0  0  0  0  0  0  0  0  0  0
    3.3537    0.3147   -1.6540 H   0  0  0  0  0  0  0  0  0  0  0  0
    2.8978   -0.5729    2.5404 H   0  0  0  0  0  0  0  0  0  0  0  0
    0.0953    0.3800    1.5007 H   0  0  0  0  0  0  0  0  0  0  0  0
    4.1825   -2.6568    2.2335 H   0  0  0  0  0  0  0  0  0  0  0  0
   -2.0375   -0.3786    2.0158 H   0  0  0  0  0  0  0  0  0  0  0  0
    5.0548   -3.2690    0.0059 H   0  0  0  0  0  0  0  0  0  0  0  0
   -1.1554    1.2841   -1.8852 H   0  0  0  0  0  0  0  0  0  0  0  0
    4.7646    3.5325    0.8422 H   0  0  0  0  0  0  0  0  0  0  0  0
    4.8996    1.9116    0.9141 H   0  0  0  0  0  0  0  0  0  0  0  0
   -3.4143    0.9195   -2.5785 H   0  0  0  0  0  0  0  0  0  0  0  0
    4.0201   -2.4129   -2.8815 H   0  0  0  0  0  0  0  0  0  0  0  0
    5.0792   -0.9818   -2.8752 H   0  0  0  0  0  0  0  0  0  0  0  0
    5.6734   -2.5103   -2.2342 H   0  0  0  0  0  0  0  0  0  0  0  0
   -4.3729   -1.1858    2.4729 H   0  0  0  0  0  0  0  0  0  0  0  0
   -5.7579    0.0852   -2.0534 H   0  0  0  0  0  0  0  0  0  0  0  0
   -6.6811   -1.5080    1.6188 H   0  0  0  0  0  0  0  0  0  0  0  0
  1  8  2  0  0  0  0
  2  8  1  0  0  0  0
  2 11  1  0  0  0  0
  2 29  1  0  0  0  0
  3  7  1  0  0  0  0
  3 34  1  0  0  0  0
  3 35  1  0  0  0  0
  4 22  2  0  0  0  0
  4 23  1  0  0  0  0
  5  6  1  0  0  0  0
  5  7  1  0  0  0  0
  5  8  1  0  0  0  0
  5 24  1  0  0  0  0
  6  9  1  0  0  0  0
  6 10  2  0  0  0  0
  7 25  1  0  0  0  0
  7 26  1  0  0  0  0
  9 12  2  0  0  0  0
  9 27  1  0  0  0  0
 10 14  1  0  0  0  0
 10 28  1  0  0  0  0
 11 15  2  0  0  0  0
 11 18  1  0  0  0  0
 12 16  1  0  0  0  0
 12 20  1  0  0  0  0
 13 15  1  0  0  0  0
 13 17  2  0  0  0  0
 13 21  1  0  0  0  0
 14 16  2  0  0  0  0
 14 30  1  0  0  0  0
 15 31  1  0  0  0  0
 16 32  1  0  0  0  0
 17 19  1  0  0  0  0
 17 22  1  0  0  0  0
 18 19  2  0  0  0  0
 18 33  1  0  0  0  0
 19 36  1  0  0  0  0
 20 37  1  0  0  0  0
 20 38  1  0  0  0  0
 20 39  1  0  0  0  0
 21 23  2  0  0  0  0
 21 40  1  0  0  0  0
 22 41  1  0  0  0  0
 23 42  1  0  0  0  0
M  END
> <PUBCHEM_COMPOUND_CID>
91806730

> <PUBCHEM_CONFORMER_RMSD>
0.8

> <PUBCHEM_CONFORMER_DIVERSEORDER>
1
52
51
85
78
64
63
8
56
66
22
80
18
25
88
67
70
68
41
45
73
98
17
81
72
29
46
91
84
47
14
7
71
10
93
40
96
36
37
76
44
42
53
95
92
62
27
90
6
34
13
16
97
61
57
74
54
11
86
79
26
21
77
9
48
55
65
3
24
15
30
82
87
31
12
69
28
59
43
32
49
4
94
83
58
89
5
39
75
38
60
50
35
23
19
33
2
20

> <PUBCHEM_MMFF94_PARTIAL_CHARGES>
34
1 -0.57
10 -0.15
11 0.12
12 -0.14
14 -0.15
15 -0.15
16 -0.15
18 -0.15
19 -0.15
2 -0.55
20 0.14
21 -0.15
22 0.16
23 0.16
27 0.15
28 0.15
29 0.37
3 -0.99
30 0.15
31 0.15
32 0.15
33 0.15
34 0.36
35 0.36
36 0.15
4 -0.62
40 0.15
41 0.15
42 0.15
5 0.2
6 -0.14
7 0.27
8 0.57
9 -0.15

> <PUBCHEM_EFFECTIVE_ROTOR_COUNT>
5

> <PUBCHEM_PHARMACOPHORE_FEATURES>
8
1 1 acceptor
1 2 donor
1 3 cation
1 3 donor
1 4 acceptor
6 11 13 15 17 18 19 rings
6 4 13 17 21 22 23 rings
6 6 9 10 12 14 16 rings

> <PUBCHEM_HEAVY_ATOM_COUNT>
23

> <PUBCHEM_ATOM_DEF_STEREO_COUNT>
0

> <PUBCHEM_ATOM_UDEF_STEREO_COUNT>
1

> <PUBCHEM_BOND_DEF_STEREO_COUNT>
0

> <PUBCHEM_BOND_UDEF_STEREO_COUNT>
0

> <PUBCHEM_ISOTOPIC_ATOM_COUNT>
0

> <PUBCHEM_COMPONENT_COUNT>
1

> <PUBCHEM_CACTVS_TAUTO_COUNT>
5

> <PUBCHEM_CONFORMER_ID>
0578DC0A00000001

> <PUBCHEM_MMFF94_ENERGY>
67.7353

> <PUBCHEM_FEATURE_SELFOVERLAP>
40.623

> <PUBCHEM_SHAPE_FINGERPRINT>
10319926 262 13973971977885775980
10369192 42 17898005991811528084
10498660 4 12107801695783399558
10912923 1 17346599724869578521
10928967 22 18261111846339902307
11059845 2 15479043830013778226
11595378 159 16773804692456040641
11954058 11 17632587011322108662
12107183 9 17486514610717709593
12422481 6 17274553014268384977
12616971 3 17704068499937507565
12670546 177 15864075346939028983
12778500 126 15338567020055573947
13533116 47 18131070463202315553
13782708 43 18337672027426594763
13914758 101 17917709051571223641
13955234 65 18272083955052416184
14211702 104 18267024054340065071
14251758 9 17916870102117810617
14251764 30 18057898943922519294
14341114 176 14764345999255957454
14341114 328 15123492719098798282
14366163 111 13912327871470348318
14528608 73 13262401063782338763
14910302 57 17385995170389276847
15142526 21 16839922922408065336
15183329 4 17530963541139361095
15575132 122 13262670410336291759
15664445 248 16298395707533980132
17349148 13 17988929972351099519
17844677 252 18410009923239798393
1813 80 18130511821401889284
18222031 100 18272933782745204174
193927 3 18341899549858894542
20369508 70 18335414652248941682
20645477 70 18412260649211055992
20693207 138 18040149608686121988
21033650 10 15720230570204791036
21279426 13 18041548162598600877
21344244 78 17560792226185512192
22061861 79 18334853922783179679
2215653 11 18040428889662564175
22224240 67 18194954365647559552
2303208 19 18040439910617152787
23081809 10 17275388729331667545
23559900 14 17385729122924355821
239999 70 18334576880249641704
312423 11 18271536328978077176
3298306 158 17968366854444394867
3421961 26 18408880729198203728
345986 75 17916863513194698850
34797466 226 17531535385785540301
3680242 22 14261639421554702627
44317340 157 8214146274429846949
465052 167 18412267220347904582
5104073 3 18410570661274682297
543368 44 13190633762626701111
6823239 73 17967252018172300800
7808743 9 11526504248086269522
7970288 3 18198909115256322014
8863177 126 18261961837732051955
960060 61 17385448700104089910
9841814 1 18412257308180089760

> <PUBCHEM_SHAPE_MULTIPOLES>
452.52
14.52
2.3
1.71
12.64
0.7
0.44
-7.41
0.46
-4.39
-0.28
-0.81
-0.49
1.83

> <PUBCHEM_SHAPE_SELFOVERLAP>
982.405

> <PUBCHEM_SHAPE_VOLUME>
245.8

> <PUBCHEM_COORDINATE_TYPE>
2
5
10

$$$$
127026636
  -OEChem-05102415043D

 41 43  0     1  0  0  0  0  0999 V2000
    0.5808    1.8638   -1.3179 O   0  0  0  0  0  0  0  0  0  0  0  0
    4.6092   -1.4057   -2.2207 O   0  0  0  0  0  0  0  0  0  0  0  0
    5.1731   -3.0601   -0.0595 O   0  0  0  0  0  0  0  0  0  0  0  0
   -0.3701    0.8040    0.5534 N   0  0  0  0  0  0  0  0  0  0  0  0
    3.8802    3.0518    1.1175 N   0  0  0  0  0  0  0  0  0  0  0  0
   -6.4952   -0.9605   -0.2541 N   0  0  0  0  0  0  0  0  0  0  0  0
    1.9497    1.5536    0.6507 C   0  0  1  0  0  0  0  0  0  0  0  0
    2.8133    0.3169    0.4568 C   0  0  0  0  0  0  0  0  0  0  0  0
    2.6867    2.8616    0.2971 C   0  0  0  0  0  0  0  0  0  0  0  0
    0.6567    1.4319   -0.1710 C   0  0  0  0  0  0  0  0  0  0  0  0
    3.3227    0.0128   -0.8056 C   0  0  0  0  0  0  0  0  0  0  0  0
    3.0970   -0.5126    1.5417 C   0  0  0  0  0  0  0  0  0  0  0  0
   -1.6723    0.5223    0.1381 C   0  0  0  0  0  0  0  0  0  0  0  0
   -3.8737   -0.4000    0.6064 C   0  0  0  0  0  0  0  0  0  0  0  0
   -2.5605   -0.1089    1.0106 C   0  0  0  0  0  0  0  0  0  0  0  0
    4.1158   -1.1209   -0.9833 C   0  0  0  0  0  0  0  0  0  0  0  0
   -4.2853   -0.0457   -0.6951 C   0  0  0  0  0  0  0  0  0  0  0  0
    3.8899   -1.6465    1.3640 C   0  0  0  0  0  0  0  0  0  0  0  0
   -2.0827    0.8706   -1.1465 C   0  0  0  0  0  0  0  0  0  0  0  0
    4.3994   -1.9505    0.1016 C   0  0  0  0  0  0  0  0  0  0  0  0
   -3.3832    0.5894   -1.5646 C   0  0  0  0  0  0  0  0  0  0  0  0
   -4.7876   -1.0316    1.4576 C   0  0  0  0  0  0  0  0  0  0  0  0
   -5.5979   -0.3508   -1.0612 C   0  0  0  0  0  0  0  0  0  0  0  0
   -6.0660   -1.2848    0.9842 C   0  0  0  0  0  0  0  0  0  0  0  0
    1.6637    1.6263    1.7099 H   0  0  0  0  0  0  0  0  0  0  0  0
    2.0123    3.7111    0.4579 H   0  0  0  0  0  0  0  0  0  0  0  0
    2.9749    2.8881   -0.7602 H   0  0  0  0  0  0  0  0  0  0  0  0
   -0.1475    0.5064    1.5008 H   0  0  0  0  0  0  0  0  0  0  0  0
    3.1051    0.6539   -1.6560 H   0  0  0  0  0  0  0  0  0  0  0  0
    2.7071   -0.2889    2.5310 H   0  0  0  0  0  0  0  0  0  0  0  0
   -2.2319   -0.3781    2.0133 H   0  0  0  0  0  0  0  0  0  0  0  0
    4.1031   -2.2842    2.2178 H   0  0  0  0  0  0  0  0  0  0  0  0
   -1.4536    1.3580   -1.8778 H   0  0  0  0  0  0  0  0  0  0  0  0
    4.3297    3.9290    0.8577 H   0  0  0  0  0  0  0  0  0  0  0  0
    4.5590    2.3183    0.9188 H   0  0  0  0  0  0  0  0  0  0  0  0
   -3.6886    0.8673   -2.5709 H   0  0  0  0  0  0  0  0  0  0  0  0
   -4.5158   -1.3225    2.4677 H   0  0  0  0  0  0  0  0  0  0  0  0
   -5.9790   -0.1051   -2.0487 H   0  0  0  0  0  0  0  0  0  0  0  0
   -6.8027   -1.7728    1.6141 H   0  0  0  0  0  0  0  0  0  0  0  0
    4.3112   -0.7233   -2.8463 H   0  0  0  0  0  0  0  0  0  0  0  0
    5.2621   -3.5112    0.7976 H   0  0  0  0  0  0  0  0  0  0  0  0
  1 10  2  0  0  0  0
  2 16  1  0  0  0  0
  2 40  1  0  0  0  0
  3 20  1  0  0  0  0
  3 41  1  0  0  0  0
  4 10  1  0  0  0  0
  4 13  1  0  0  0  0
  4 28  1  0  0  0  0
  5  9  1  0  0  0  0
  5 34  1  0  0  0  0
  5 35  1  0  0  0  0
  6 23  2  0  0  0  0
  6 24  1  0  0  0  0
  7  8  1  0  0  0  0
  7  9  1  0  0  0  0
  7 10  1  0  0  0  0
  7 25  1  0  0  0  0
  8 11  2  0  0  0  0
  8 12  1  0  0  0  0
  9 26  1  0  0  0  0
  9 27  1  0  0  0  0
 11 16  1  0  0  0  0
 11 29  1  0  0  0  0
 12 18  2  0  0  0  0
 12 30  1  0  0  0  0
 13 15  2  0  0  0  0
 13 19  1  0  0  0  0
 14 15  1  0  0  0  0
 14 17  2  0  0  0  0
 14 22  1  0  0  0  0
 15 31  1  0  0  0  0
 16 20  2  0  0  0  0
 17 21  1  0  0  0  0
 17 23  1  0  0  0  0
 18 20  1  0  0  0  0
 18 32  1  0  0  0  0
 19 21  2  0  0  0  0
 19 33  1  0  0  0  0
 21 36  1  0  0  0  0
 22 24  2  0  0  0  0
 22 37  1  0  0  0  0
 23 38  1  0  0  0  0
 24 39  1  0  0  0  0
M  END
> <PUBCHEM_COMPOUND_CID>
127026636

> <PUBCHEM_CONFORMER_RMSD>
0.8

> <PUBCHEM_CONFORMER_DIVERSEORDER>
1
85
87
15
70
61
84
21
25
64
94
90
44
57
28
83
12
40
93
42
89
91
59
82
13
72
65
4
66
9
79
20
53
10
41
75
71
55
78
6
60
74
46
37
58
29
67
36
81
14
63
11
30
23
73
3
77
5
22
48
51
56
39
49
62
7
18
31
69
17
50
45
52
8
95
33
76
92
88
47
54
16
26
80
86
35
96
38
43
32
2
27
19
68
34
24

> <PUBCHEM_MMFF94_PARTIAL_CHARGES>
36
1 -0.57
10 0.57
11 -0.15
12 -0.15
13 0.12
15 -0.15
16 0.08
18 -0.15
19 -0.15
2 -0.53
20 0.08
21 -0.15
22 -0.15
23 0.16
24 0.16
28 0.37
29 0.15
3 -0.53
30 0.15
31 0.15
32 0.15
33 0.15
34 0.36
35 0.36
36 0.15
37 0.15
38 0.15
39 0.15
4 -0.55
40 0.45
41 0.45
5 -0.99
6 -0.62
7 0.2
8 -0.14
9 0.27

> <PUBCHEM_EFFECTIVE_ROTOR_COUNT>
5

> <PUBCHEM_PHARMACOPHORE_FEATURES>
10
1 1 acceptor
1 2 donor
1 3 donor
1 4 donor
1 5 cation
1 5 donor
1 6 acceptor
6 13 14 15 17 19 21 rings
6 6 14 17 22 23 24 rings
6 8 11 12 16 18 20 rings

> <PUBCHEM_HEAVY_ATOM_COUNT>
24

> <PUBCHEM_ATOM_DEF_STEREO_COUNT>
0

> <PUBCHEM_ATOM_UDEF_STEREO_COUNT>
1

> <PUBCHEM_BOND_DEF_STEREO_COUNT>
0

> <PUBCHEM_BOND_UDEF_STEREO_COUNT>
0

> <PUBCHEM_ISOTOPIC_ATOM_COUNT>
0

> <PUBCHEM_COMPONENT_COUNT>
1

> <PUBCHEM_CACTVS_TAUTO_COUNT>
288

> <PUBCHEM_CONFORMER_ID>
079245CC00000001

> <PUBCHEM_MMFF94_ENERGY>
69.7324

> <PUBCHEM_FEATURE_SELFOVERLAP>
50.778

> <PUBCHEM_SHAPE_FINGERPRINT>
10319926 262 14117522034133214620
10369192 42 17825947306762301132
10498660 4 11819287645563097854
10554248 39 13263491792887998739
10912923 1 17346319362368570753
10928967 22 18259702285460361955
11059845 2 15622879754883833402
11128504 68 14490191609438086227
11595378 159 16773806904490883081
12107183 9 18056771927223712729
12363563 72 18339924797380051736
12422481 6 17059788715171319845
12616971 3 17561080319938680437
12633257 1 15769763654950957890
13073987 5 18342741858082670433
13533116 47 18271526489582028833
13782708 43 18334856156535847923
13914758 101 17917427589521586901
13955234 65 18199744903117569424
14211702 104 18195246844383521863
14251758 9 17917715639518357793
14251764 30 18058463006230181310
14341114 328 15123493827136953250
14347424 109 18273217500011588785
14528608 73 13334737938158301419
14910302 57 17603576444188802791
15142526 21 16839361084677197816
15183329 4 16515683308544269783
15575132 122 13118271548302667671
15664445 248 16371295540295263972
17349148 13 17989212555513723103
17844677 252 18411417306802970081
17870717 6 17313103047600834315
1813 80 18130794404422269956
18222031 100 18202566146647854206
193927 3 18341898458815797607
20369508 70 18335977610707856064
20645477 70 18410851088009930976
20693207 138 17967807241252748589
20715895 44 12247411046744321795
21033650 10 16009587958501716988
21279426 13 18041547071724367485
21344244 78 17417805145524220008
21682296 61 18410576150490753759
22061861 79 18334853935731352583
2215653 11 18040709278070551695
2303208 19 18040438824037873675
23081809 10 17275108366809534793
23559900 14 17531248387401642029
239999 70 18187362181611390144
270888 7 9006470824642229642
312423 11 18343030981620941329
3298306 158 17968647238552120811
3421961 26 18411417315361048392
345986 75 17917992733090129760
34797466 226 17168150087098138389
44317340 157 8430322355157700269
46194498 28 17385729139919648108
465052 167 18413111653725429478
5104073 3 18411979148628650769
543368 44 12901554559277205951
6823239 73 17967248723758415456
7808743 9 10158535839845156394
7970288 3 18269275673184803814
8863177 126 18334862765852232627
960060 61 17458067057846211790

> <PUBCHEM_SHAPE_MULTIPOLES>
461.36
14.82
2.56
1.59
12.94
0.62
0.32
-9.17
0.55
-4.87
-0.41
-0.4
-0.2
1.86

> <PUBCHEM_SHAPE_SELFOVERLAP>
1007.919

> <PUBCHEM_SHAPE_VOLUME>
248.4

> <PUBCHEM_COORDINATE_TYPE>
2
5
10

$$$$
127031817
  -OEChem-05102415043D

 39 41  0     1  0  0  0  0  0999 V2000
    3.0447    1.5542   -1.8719 F   0  0  0  0  0  0  0  0  0  0  0  0
    0.9263   -2.1102    0.8166 O   0  0  0  0  0  0  0  0  0  0  0  0
    0.0167   -0.4335   -0.5584 N   0  0  0  0  0  0  0  0  0  0  0  0
    4.4696   -2.0446   -1.5645 N   0  0  0  0  0  0  0  0  0  0  0  0
   -6.2756    0.5436    0.2988 N   0  0  0  0  0  0  0  0  0  0  0  0
    2.3928   -0.9622   -0.7252 C   0  0  1  0  0  0  0  0  0  0  0  0
    3.1342    0.1321    0.0268 C   0  0  0  0  0  0  0  0  0  0  0  0
    3.2121   -2.2627   -0.8540 C   0  0  0  0  0  0  0  0  0  0  0  0
    1.0421   -1.2482   -0.0502 C   0  0  0  0  0  0  0  0  0  0  0  0
   -1.3294   -0.4097   -0.1912 C   0  0  0  0  0  0  0  0  0  0  0  0
    3.4200    1.3437   -0.6025 C   0  0  0  0  0  0  0  0  0  0  0  0
    3.5285   -0.0774    1.3483 C   0  0  0  0  0  0  0  0  0  0  0  0
   -3.5645    0.5113   -0.4601 C   0  0  0  0  0  0  0  0  0  0  0  0
   -2.2074    0.4749   -0.8199 C   0  0  0  0  0  0  0  0  0  0  0  0
   -4.0309   -0.3591    0.5466 C   0  0  0  0  0  0  0  0  0  0  0  0
   -1.7940   -1.2679    0.8027 C   0  0  0  0  0  0  0  0  0  0  0  0
   -3.1387   -1.2453    1.1724 C   0  0  0  0  0  0  0  0  0  0  0  0
    4.0999    2.3457    0.0895 C   0  0  0  0  0  0  0  0  0  0  0  0
    4.2086    0.9248    2.0404 C   0  0  0  0  0  0  0  0  0  0  0  0
    4.4943    2.1364    1.4111 C   0  0  0  0  0  0  0  0  0  0  0  0
   -4.4695    1.3866   -1.0718 C   0  0  0  0  0  0  0  0  0  0  0  0
   -5.3861   -0.2945    0.8773 C   0  0  0  0  0  0  0  0  0  0  0  0
   -5.7935    1.3620   -0.6607 C   0  0  0  0  0  0  0  0  0  0  0  0
    2.1829   -0.6204   -1.7484 H   0  0  0  0  0  0  0  0  0  0  0  0
    3.4301   -2.6998    0.1274 H   0  0  0  0  0  0  0  0  0  0  0  0
    2.6240   -3.0075   -1.4034 H   0  0  0  0  0  0  0  0  0  0  0  0
    0.2762    0.2325   -1.2828 H   0  0  0  0  0  0  0  0  0  0  0  0
    3.3149   -1.0125    1.8582 H   0  0  0  0  0  0  0  0  0  0  0  0
   -1.8363    1.1427   -1.5959 H   0  0  0  0  0  0  0  0  0  0  0  0
   -1.1765   -1.9771    1.3352 H   0  0  0  0  0  0  0  0  0  0  0  0
    4.9729   -2.9282   -1.6350 H   0  0  0  0  0  0  0  0  0  0  0  0
    5.0695   -1.4214   -1.0259 H   0  0  0  0  0  0  0  0  0  0  0  0
   -3.4861   -1.9214    1.9505 H   0  0  0  0  0  0  0  0  0  0  0  0
    4.3221    3.2889   -0.4007 H   0  0  0  0  0  0  0  0  0  0  0  0
    4.5153    0.7620    3.0694 H   0  0  0  0  0  0  0  0  0  0  0  0
    5.0236    2.9168    1.9500 H   0  0  0  0  0  0  0  0  0  0  0  0
   -4.1562    2.0743   -1.8513 H   0  0  0  0  0  0  0  0  0  0  0  0
   -5.8102   -0.9373    1.6438 H   0  0  0  0  0  0  0  0  0  0  0  0
   -6.5249    2.0253   -1.1108 H   0  0  0  0  0  0  0  0  0  0  0  0
  1 11  1  0  0  0  0
  2  9  2  0  0  0  0
  3  9  1  0  0  0  0
  3 10  1  0  0  0  0
  3 27  1  0  0  0  0
  4  8  1  0  0  0  0
  4 31  1  0  0  0  0
  4 32  1  0  0  0  0
  5 22  2  0  0  0  0
  5 23  1  0  0  0  0
  6  7  1  0  0  0  0
  6  8  1  0  0  0  0
  6  9  1  0  0  0  0
  6 24  1  0  0  0  0
  7 11  1  0  0  0  0
  7 12  2  0  0  0  0
  8 25  1  0  0  0  0
  8 26  1  0  0  0  0
 10 14  2  0  0  0  0
 10 16  1  0  0  0  0
 11 18  2  0  0  0  0
 12 19  1  0  0  0  0
 12 28  1  0  0  0  0
 13 14  1  0  0  0  0
 13 15  2  0  0  0  0
 13 21  1  0  0  0  0
 14 29  1  0  0  0  0
 15 17  1  0  0  0  0
 15 22  1  0  0  0  0
 16 17  2  0  0  0  0
 16 30  1  0  0  0  0
 17 33  1  0  0  0  0
 18 20  1  0  0  0  0
 18 34  1  0  0  0  0
 19 20  2  0  0  0  0
 19 35  1  0  0  0  0
 20 36  1  0  0  0  0
 21 23  2  0  0  0  0
 21 37  1  0  0  0  0
 22 38  1  0  0  0  0
 23 39  1  0  0  0  0
M  END
> <PUBCHEM_COMPOUND_CID>
127031817

> <PUBCHEM_CONFORMER_RMSD>
0.8

> <PUBCHEM_CONFORMER_DIVERSEORDER>
1
64
94
27
32
85
44
83
77
65
38
6
84
92
42
71
17
56
39
79
62
34
76
9
96
67
41
95
93
10
63
54
18
23
30
46
20
66
69
75
31
80
29
61
60
33
74
11
81
12
78
91
58
45
22
73
5
68
37
14
19
24
26
47
86
51
87
90
4
48
28
40
13
15
72
8
53
70
2
89
55
50
52
57
25
82
7
49
59
35
43
16
88
3
36
21

> <PUBCHEM_MMFF94_PARTIAL_CHARGES>
34
1 -0.19
10 0.12
11 0.19
12 -0.15
14 -0.15
16 -0.15
17 -0.15
18 -0.15
19 -0.15
2 -0.57
20 -0.15
21 -0.15
22 0.16
23 0.16
27 0.37
28 0.15
29 0.15
3 -0.55
30 0.15
31 0.36
32 0.36
33 0.15
34 0.15
35 0.15
36 0.15
37 0.15
38 0.15
39 0.15
4 -0.99
5 -0.62
6 0.2
7 -0.14
8 0.27
9 0.57

> <PUBCHEM_EFFECTIVE_ROTOR_COUNT>
5

> <PUBCHEM_PHARMACOPHORE_FEATURES>
8
1 2 acceptor
1 3 donor
1 4 cation
1 4 donor
1 5 acceptor
6 10 13 14 15 16 17 rings
6 5 13 15 21 22 23 rings
6 7 11 12 18 19 20 rings

> <PUBCHEM_HEAVY_ATOM_COUNT>
23

> <PUBCHEM_ATOM_DEF_STEREO_COUNT>
0

> <PUBCHEM_ATOM_UDEF_STEREO_COUNT>
1

> <PUBCHEM_BOND_DEF_STEREO_COUNT>
0

> <PUBCHEM_BOND_UDEF_STEREO_COUNT>
0

> <PUBCHEM_ISOTOPIC_ATOM_COUNT>
0

> <PUBCHEM_COMPONENT_COUNT>
1

> <PUBCHEM_CACTVS_TAUTO_COUNT>
27

> <PUBCHEM_CONFORMER_ID>
07925A0900000001

> <PUBCHEM_MMFF94_ENERGY>
65.4332

> <PUBCHEM_FEATURE_SELFOVERLAP>
40.623

> <PUBCHEM_SHAPE_FINGERPRINT>
10319926 262 17822285777857669738
10498660 4 17632294644034041400
10912923 1 14923954444354323671
11128504 68 15769776879250207785
11595378 159 15502374491723164335
12403259 415 18335145267404838831
12596602 18 15864071009586770393
12616971 3 16773800255928896463
12633257 1 17095514128110655560
12769317 202 18130499833837248496
13073987 5 11674884373067787007
13533116 47 18202006486439103319
13955234 65 18269273473982161331
14170010 4 18060416886006286662
14251758 9 13551735315533501031
14341114 176 17749098985710402920
14341114 328 17168140199809408456
14528608 73 16702017604132705889
15081414 286 18342744021944671776
15183329 4 11239729578174399763
17349148 13 13190339041807104769
17844677 252 18201162040514124277
1813 80 13046209542995222698
18681886 176 17241350026357193262
1979834 28 18410013247138232396
20715895 44 18115293489336115613
21033648 29 18334296457281338745
21452121 103 18411131433684400050
21792934 111 17459181899235894029
21859007 373 15865732238744066759
22149856 69 18265354897194159891
22849339 104 14404610091388589861
23559900 14 18188217511104894502
341906 21 17749108898151835469
34797466 226 18272373070939145015
3680242 22 17821727200397571097
465052 167 11241964854695360504
474 4 17773873271812068336
495365 180 18273213097501363222
5104073 3 17967815986576102361
5219985 9 17629492900262084950
543368 44 16773507880483470641
633830 44 18333448750706497335
6823239 73 18114195120258583910
7808743 9 17974573799583530060
960060 61 12463575105489103904

> <PUBCHEM_SHAPE_MULTIPOLES>
445.24
13.94
2.28
1.52
12.25
0.1
0.14
-5.91
1.04
-3.08
-0.27
-1.3
-0.15
2.26

> <PUBCHEM_SHAPE_SELFOVERLAP>
972.097

> <PUBCHEM_SHAPE_VOLUME>
241.2

> <PUBCHEM_COORDINATE_TYPE>
2
5
10

$$$$
59563754
  -OEChem-05102415043D

 43 45  0     1  0  0  0  0  0999 V2000
    0.5812    1.8544   -1.3285 O   0  0  0  0  0  0  0  0  0  0  0  0
    5.1680   -3.0602   -0.0122 O   0  0  0  0  0  0  0  0  0  0  0  0
   -0.3725    0.8105    0.5503 N   0  0  0  0  0  0  0  0  0  0  0  0
    3.8750    3.0665    1.1026 N   0  0  0  0  0  0  0  0  0  0  0  0
   -6.4947   -0.9658   -0.2532 N   0  0  0  0  0  0  0  0  0  0  0  0
    1.9465    1.5627    0.6454 C   0  0  1  0  0  0  0  0  0  0  0  0
    2.8115    0.3251    0.4641 C   0  0  0  0  0  0  0  0  0  0  0  0
    2.6832    2.8681    0.2816 C   0  0  0  0  0  0  0  0  0  0  0  0
    0.6553    1.4328   -0.1777 C   0  0  0  0  0  0  0  0  0  0  0  0
    3.3214    0.0082   -0.7949 C   0  0  0  0  0  0  0  0  0  0  0  0
    3.0935   -0.4944    1.5572 C   0  0  0  0  0  0  0  0  0  0  0  0
    4.1134   -1.1279   -0.9609 C   0  0  0  0  0  0  0  0  0  0  0  0
   -1.6737    0.5241    0.1351 C   0  0  0  0  0  0  0  0  0  0  0  0
    4.3954   -1.9472    0.1322 C   0  0  0  0  0  0  0  0  0  0  0  0
    3.8855   -1.6305    1.3913 C   0  0  0  0  0  0  0  0  0  0  0  0
   -3.8752   -0.3956    0.6073 C   0  0  0  0  0  0  0  0  0  0  0  0
   -2.5631   -0.0999    1.0114 C   0  0  0  0  0  0  0  0  0  0  0  0
   -4.2847   -0.0533   -0.6981 C   0  0  0  0  0  0  0  0  0  0  0  0
   -2.0819    0.8608   -1.1534 C   0  0  0  0  0  0  0  0  0  0  0  0
    4.6516   -1.4513   -2.3156 C   0  0  0  0  0  0  0  0  0  0  0  0
   -3.3814    0.5748   -1.5714 C   0  0  0  0  0  0  0  0  0  0  0  0
   -4.7904   -1.0204    1.4624 C   0  0  0  0  0  0  0  0  0  0  0  0
   -5.5963   -0.3626   -1.0639 C   0  0  0  0  0  0  0  0  0  0  0  0
   -6.0677   -1.2787    0.9887 C   0  0  0  0  0  0  0  0  0  0  0  0
    1.6584    1.6447    1.7034 H   0  0  0  0  0  0  0  0  0  0  0  0
    2.9735    2.8853   -0.7753 H   0  0  0  0  0  0  0  0  0  0  0  0
    2.0079    3.7185    0.4335 H   0  0  0  0  0  0  0  0  0  0  0  0
    3.1031    0.6427   -1.6500 H   0  0  0  0  0  0  0  0  0  0  0  0
    2.7027   -0.2609    2.5439 H   0  0  0  0  0  0  0  0  0  0  0  0
   -0.1515    0.5215    1.5008 H   0  0  0  0  0  0  0  0  0  0  0  0
    4.0971   -2.2599    2.2516 H   0  0  0  0  0  0  0  0  0  0  0  0
   -2.2362   -0.3600    2.0171 H   0  0  0  0  0  0  0  0  0  0  0  0
    4.3245    3.9416    0.8358 H   0  0  0  0  0  0  0  0  0  0  0  0
    4.5546    2.3317    0.9118 H   0  0  0  0  0  0  0  0  0  0  0  0
   -1.4518    1.3421   -1.8878 H   0  0  0  0  0  0  0  0  0  0  0  0
    4.3401   -0.7175   -3.0666 H   0  0  0  0  0  0  0  0  0  0  0  0
    4.2904   -2.4315   -2.6440 H   0  0  0  0  0  0  0  0  0  0  0  0
    5.7464   -1.4595   -2.2975 H   0  0  0  0  0  0  0  0  0  0  0  0
   -3.6851    0.8435   -2.5808 H   0  0  0  0  0  0  0  0  0  0  0  0
   -4.5202   -1.3021    2.4755 H   0  0  0  0  0  0  0  0  0  0  0  0
   -5.9756   -0.1260   -2.0542 H   0  0  0  0  0  0  0  0  0  0  0  0
   -6.8051   -1.7617    1.6216 H   0  0  0  0  0  0  0  0  0  0  0  0
    5.2543   -3.5009    0.8505 H   0  0  0  0  0  0  0  0  0  0  0  0
  1  9  2  0  0  0  0
  2 14  1  0  0  0  0
  2 43  1  0  0  0  0
  3  9  1  0  0  0  0
  3 13  1  0  0  0  0
  3 30  1  0  0  0  0
  4  8  1  0  0  0  0
  4 33  1  0  0  0  0
  4 34  1  0  0  0  0
  5 23  2  0  0  0  0
  5 24  1  0  0  0  0
  6  7  1  0  0  0  0
  6  8  1  0  0  0  0
  6  9  1  0  0  0  0
  6 25  1  0  0  0  0
  7 10  2  0  0  0  0
  7 11  1  0  0  0  0
  8 26  1  0  0  0  0
  8 27  1  0  0  0  0
 10 12  1  0  0  0  0
 10 28  1  0  0  0  0
 11 15  2  0  0  0  0
 11 29  1  0  0  0  0
 12 14  2  0  0  0  0
 12 20  1  0  0  0  0
 13 17  2  0  0  0  0
 13 19  1  0  0  0  0
 14 15  1  0  0  0  0
 15 31  1  0  0  0  0
 16 17  1  0  0  0  0
 16 18  2  0  0  0  0
 16 22  1  0  0  0  0
 17 32  1  0  0  0  0
 18 21  1  0  0  0  0
 18 23  1  0  0  0  0
 19 21  2  0  0  0  0
 19 35  1  0  0  0  0
 20 36  1  0  0  0  0
 20 37  1  0  0  0  0
 20 38  1  0  0  0  0
 21 39  1  0  0  0  0
 22 24  2  0  0  0  0
 22 40  1  0  0  0  0
 23 41  1  0  0  0  0
 24 42  1  0  0  0  0
M  END
> <PUBCHEM_COMPOUND_CID>
59563754

> <PUBCHEM_CONFORMER_RMSD>
0.8

> <PUBCHEM_CONFORMER_DIVERSEORDER>
1
51
104
47
40
52
62
22
96
57
8
24
18
80
65
87
42
92
19
50
98
61
26
103
54
86
66
16
63
60
68
12
41
23
30
72
35
91
69
64
13
5
90
44
73
89
95
53
75
55
4
9
101
102
10
67
56
17
59
97
39
82
6
36
28
31
100
21
71
11
46
14
83
25
48
77
3
84
88
38
79
7
99
94
34
15
85
74
78
58
93
37
76
29
49
32
81
45
43
70
33
2
20
27

> <PUBCHEM_MMFF94_PARTIAL_CHARGES>
35
1 -0.57
10 -0.15
11 -0.15
12 -0.14
13 0.12
14 0.08
15 -0.15
17 -0.15
19 -0.15
2 -0.53
20 0.14
21 -0.15
22 -0.15
23 0.16
24 0.16
28 0.15
29 0.15
3 -0.55
30 0.37
31 0.15
32 0.15
33 0.36
34 0.36
35 0.15
39 0.15
4 -0.99
40 0.15
41 0.15
42 0.15
43 0.45
5 -0.62
6 0.2
7 -0.14
8 0.27
9 0.57

> <PUBCHEM_EFFECTIVE_ROTOR_COUNT>
5

> <PUBCHEM_PHARMACOPHORE_FEATURES>
9
1 1 acceptor
1 2 donor
1 3 donor
1 4 cation
1 4 donor
1 5 acceptor
6 13 16 17 18 19 21 rings
6 5 16 18 22 23 24 rings
6 7 10 11 12 14 15 rings

> <PUBCHEM_HEAVY_ATOM_COUNT>
24

> <PUBCHEM_ATOM_DEF_STEREO_COUNT>
0

> <PUBCHEM_ATOM_UDEF_STEREO_COUNT>
1

> <PUBCHEM_BOND_DEF_STEREO_COUNT>
0

> <PUBCHEM_BOND_UDEF_STEREO_COUNT>
0

> <PUBCHEM_ISOTOPIC_ATOM_COUNT>
0

> <PUBCHEM_COMPONENT_COUNT>
1

> <PUBCHEM_CACTVS_TAUTO_COUNT>
15

> <PUBCHEM_CONFORMER_ID>
038CDEEA00000001

> <PUBCHEM_MMFF94_ENERGY>
70.4458

> <PUBCHEM_FEATURE_SELFOVERLAP>
45.698

> <PUBCHEM_SHAPE_FINGERPRINT>
10319926 262 14189580723408882533
10369192 42 17825948406279203668
10498660 4 11819288745106387158
10554248 39 13335829758106591739
10912923 1 17346037887391847129
10928967 22 18259702285444537667
11059845 2 15622879754894376402
11128504 68 14490191609438092715
11595378 159 16773806904475065313
12107183 9 18056771927234262225
12363563 72 18339923697878973464
12422481 6 16988012596094258869
12616971 3 17561080319938686949
12633257 1 15841539774006887378
13073987 5 18342461482617587553
13533116 47 18272089439535443641
13782708 43 18335138731018918059
13914758 101 17917428689027933425
13955234 65 18199744903117569416
14211702 104 18196653115444649463
14251758 9 17845658045469873833
14251764 30 18058463006224906566
14341114 176 14692572087734005790
14341114 328 15123493827158065250
14347424 109 18272936025029616353
14528608 73 13334737938147758403
14848178 96 10881696688921610766
14910302 57 17603576444188802799
15142526 21 16767584965637079536
15183329 4 16515684412356133167
15575132 122 13118271548302667695
15664445 248 16443634609315196812
17349148 13 17988931080531744199
17844677 252 18411699881280752505
1813 80 18130511829944474548
18222031 100 18202284671665875302
193927 3 18342181033304129559
20369508 70 18335696135736420160
20645477 70 18411415137501366800
20693207 138 17967808345054068909
20715895 44 12319468640771700227
21033650 10 16081645552560737452
21279426 13 18041547071724367493
21344244 78 17418369190694275808
21682296 61 18410576150490760239
22061861 79 18334853935726077839
2215653 11 18040709278070545215
2303208 19 18040439923544246195
23081809 10 17275108366809528289
23559900 14 17530966912430199645
239999 70 18261391204324529648
312423 11 18343030981626216097
3421961 26 18411416215849427104
345986 75 17917992733100679256
34797466 226 17167868616411113781
44317340 157 8358264761114491101
46194498 28 17458349679674097812
465052 167 18412830178801511798
5104073 3 18412260623584242937
543368 44 12973893632592080119
6823239 73 17967249823275317920
7808743 9 10158536935051267338
7970288 3 18341333271517692574
8863177 126 18334863865358592123
960060 61 17458068157368389086
9841814 1 18413103944965767976

> <PUBCHEM_SHAPE_MULTIPOLES>
467.23
14.92
2.57
1.67
13.71
0.83
0.41
-9.45
0.56
-4.88
-0.41
-0.59
-0.33
1.72

> <PUBCHEM_SHAPE_SELFOVERLAP>
1016.719

> <PUBCHEM_SHAPE_VOLUME>
253.2

> <PUBCHEM_COORDINATE_TYPE>
2
5
10

$$$$
59563729
  -OEChem-05102415043D

 61 64  0     1  0  0  0  0  0999 V2000
   -3.8097   -0.9314    0.1776 O   0  0  0  0  0  0  0  0  0  0  0  0
    2.9959   -2.2059   -1.8449 O   0  0  0  0  0  0  0  0  0  0  0  0
   -6.0652   -1.2255    0.5321 O   0  0  0  0  0  0  0  0  0  0  0  0
    3.2562   -1.2455    0.2857 N   0  0  0  0  0  0  0  0  0  0  0  0
    1.8198   -5.8611    0.0220 N   0  0  0  0  0  0  0  0  0  0  0  0
    6.3272    4.3982    0.2686 N   0  0  0  0  0  0  0  0  0  0  0  0
    2.1152   -3.3912    0.0694 C   0  0  1  0  0  0  0  0  0  0  0  0
    0.6260   -3.1037    0.1811 C   0  0  0  0  0  0  0  0  0  0  0  0
    2.4172   -4.7161   -0.6603 C   0  0  0  0  0  0  0  0  0  0  0  0
    2.8303   -2.2236   -0.6284 C   0  0  0  0  0  0  0  0  0  0  0  0
    0.0313   -2.9814    1.4370 C   0  0  0  0  0  0  0  0  0  0  0  0
   -0.1456   -2.9632   -0.9725 C   0  0  0  0  0  0  0  0  0  0  0  0
   -2.1063   -2.5783    0.3858 C   0  0  0  0  0  0  0  0  0  0  0  0
   -1.3347   -2.7187    1.5394 C   0  0  0  0  0  0  0  0  0  0  0  0
   -1.5117   -2.7007   -0.8702 C   0  0  0  0  0  0  0  0  0  0  0  0
    3.9339   -0.0544    0.0224 C   0  0  0  0  0  0  0  0  0  0  0  0
   -3.5666   -2.2965    0.4950 C   0  0  0  0  0  0  0  0  0  0  0  0
    4.2815    0.7962    1.0734 C   0  0  0  0  0  0  0  0  0  0  0  0
    4.9624    1.9989    0.8237 C   0  0  0  0  0  0  0  0  0  0  0  0
    4.2610    0.2840   -1.2885 C   0  0  0  0  0  0  0  0  0  0  0  0
    5.2919    2.3379   -0.5049 C   0  0  0  0  0  0  0  0  0  0  0  0
    4.9373    1.4744   -1.5546 C   0  0  0  0  0  0  0  0  0  0  0  0
   -5.2272    0.9106   -0.1158 C   0  0  0  0  0  0  0  0  0  0  0  0
   -5.7535    1.8333    0.7885 C   0  0  0  0  0  0  0  0  0  0  0  0
   -5.1082   -0.5270    0.2357 C   0  0  0  0  0  0  0  0  0  0  0  0
    5.3249    2.8725    1.8556 C   0  0  0  0  0  0  0  0  0  0  0  0
   -5.4310    3.6006   -0.8272 C   0  0  0  0  0  0  0  0  0  0  0  0
   -5.8553    3.1782    0.4326 C   0  0  0  0  0  0  0  0  0  0  0  0
   -4.8026    1.3330   -1.3756 C   0  0  0  0  0  0  0  0  0  0  0  0
    5.9688    3.5411   -0.7140 C   0  0  0  0  0  0  0  0  0  0  0  0
   -4.9047    2.6778   -1.7315 C   0  0  0  0  0  0  0  0  0  0  0  0
   -6.2144    1.4081    2.1445 C   0  0  0  0  0  0  0  0  0  0  0  0
    5.9956    4.0408    1.5276 C   0  0  0  0  0  0  0  0  0  0  0  0
   -5.5396    5.0381   -1.2090 C   0  0  0  0  0  0  0  0  0  0  0  0
    2.5376   -3.4819    1.0806 H   0  0  0  0  0  0  0  0  0  0  0  0
    2.0605   -4.6949   -1.6967 H   0  0  0  0  0  0  0  0  0  0  0  0
    3.5028   -4.8637   -0.7070 H   0  0  0  0  0  0  0  0  0  0  0  0
    0.6196   -3.0875    2.3445 H   0  0  0  0  0  0  0  0  0  0  0  0
    0.2974   -3.0530   -1.9603 H   0  0  0  0  0  0  0  0  0  0  0  0
   -1.7839   -2.6238    2.5244 H   0  0  0  0  0  0  0  0  0  0  0  0
   -2.1032   -2.5919   -1.7755 H   0  0  0  0  0  0  0  0  0  0  0  0
    3.0447   -1.4115    1.2672 H   0  0  0  0  0  0  0  0  0  0  0  0
   -4.1192   -2.9447   -0.1970 H   0  0  0  0  0  0  0  0  0  0  0  0
   -3.9274   -2.5067    1.5096 H   0  0  0  0  0  0  0  0  0  0  0  0
    2.0506   -6.7133   -0.4873 H   0  0  0  0  0  0  0  0  0  0  0  0
    0.8038   -5.7870    0.0006 H   0  0  0  0  0  0  0  0  0  0  0  0
    4.0219    0.5246    2.0955 H   0  0  0  0  0  0  0  0  0  0  0  0
    4.0242   -0.3202   -2.1528 H   0  0  0  0  0  0  0  0  0  0  0  0
    5.1853    1.7249   -2.5837 H   0  0  0  0  0  0  0  0  0  0  0  0
    5.0926    2.6534    2.8933 H   0  0  0  0  0  0  0  0  0  0  0  0
   -6.2677    3.9008    1.1329 H   0  0  0  0  0  0  0  0  0  0  0  0
   -4.3941    0.6245   -2.0918 H   0  0  0  0  0  0  0  0  0  0  0  0
    6.2522    3.8619   -1.7127 H   0  0  0  0  0  0  0  0  0  0  0  0
   -4.5731    2.9939   -2.7171 H   0  0  0  0  0  0  0  0  0  0  0  0
   -7.1321    0.8164    2.0673 H   0  0  0  0  0  0  0  0  0  0  0  0
   -5.4430    0.8194    2.6521 H   0  0  0  0  0  0  0  0  0  0  0  0
   -6.4289    2.2690    2.7874 H   0  0  0  0  0  0  0  0  0  0  0  0
    6.2932    4.7431    2.2995 H   0  0  0  0  0  0  0  0  0  0  0  0
   -4.7663    5.3154   -1.9336 H   0  0  0  0  0  0  0  0  0  0  0  0
   -5.4089    5.6883   -0.3373 H   0  0  0  0  0  0  0  0  0  0  0  0
   -6.5209    5.2362   -1.6514 H   0  0  0  0  0  0  0  0  0  0  0  0
  1 17  1  0  0  0  0
  1 25  1  0  0  0  0
  2 10  2  0  0  0  0
  3 25  2  0  0  0  0
  4 10  1  0  0  0  0
  4 16  1  0  0  0  0
  4 42  1  0  0  0  0
  5  9  1  0  0  0  0
  5 45  1  0  0  0  0
  5 46  1  0  0  0  0
  6 30  2  0  0  0  0
  6 33  1  0  0  0  0
  7  8  1  0  0  0  0
  7  9  1  0  0  0  0
  7 10  1  0  0  0  0
  7 35  1  0  0  0  0
  8 11  2  0  0  0  0
  8 12  1  0  0  0  0
  9 36  1  0  0  0  0
  9 37  1  0  0  0  0
 11 14  1  0  0  0  0
 11 38  1  0  0  0  0
 12 15  2  0  0  0  0
 12 39  1  0  0  0  0
 13 14  2  0  0  0  0
 13 15  1  0  0  0  0
 13 17  1  0  0  0  0
 14 40  1  0  0  0  0
 15 41  1  0  0  0  0
 16 18  2  0  0  0  0
 16 20  1  0  0  0  0
 17 43  1  0  0  0  0
 17 44  1  0  0  0  0
 18 19  1  0  0  0  0
 18 47  1  0  0  0  0
 19 21  2  0  0  0  0
 19 26  1  0  0  0  0
 20 22  2  0  0  0  0
 20 48  1  0  0  0  0
 21 22  1  0  0  0  0
 21 30  1  0  0  0  0
 22 49  1  0  0  0  0
 23 24  2  0  0  0  0
 23 25  1  0  0  0  0
 23 29  1  0  0  0  0
 24 28  1  0  0  0  0
 24 32  1  0  0  0  0
 26 33  2  0  0  0  0
 26 50  1  0  0  0  0
 27 28  2  0  0  0  0
 27 31  1  0  0  0  0
 27 34  1  0  0  0  0
 28 51  1  0  0  0  0
 29 31  2  0  0  0  0
 29 52  1  0  0  0  0
 30 53  1  0  0  0  0
 31 54  1  0  0  0  0
 32 55  1  0  0  0  0
 32 56  1  0  0  0  0
 32 57  1  0  0  0  0
 33 58  1  0  0  0  0
 34 59  1  0  0  0  0
 34 60  1  0  0  0  0
 34 61  1  0  0  0  0
M  END
> <PUBCHEM_COMPOUND_CID>
59563729

> <PUBCHEM_CONFORMER_RMSD>
1.2

> <PUBCHEM_CONFORMER_DIVERSEORDER>
1
105
155
93
114
82
103
141
94
83
62
78
37
123
112
47
119
90
18
138
84
110
101
70
113
32
23
135
75
144
85
68
117
115
57
125
60
77
92
134
22
29
49
150
63
34
69
25
122
137
149
79
156
41
153
12
152
20
54
145
30
50
19
111
64
132
10
127
24
80
129
139
42
91
151
96
66
39
16
58
107
130
102
143
71
21
4
31
98
28
52
124
14
81
109
11
100
17
99
133
65
45
89
154
140
88
6
147
106
73
118
51
36
40
74
59
67
142
108
53
5
55
86
61
120
76
33
121
56
87
116
136
13
72
35
9
97
104
46
126
128
146
3
43
8
95
15
131
26
7
48
38
44
148
27
2

> <PUBCHEM_MMFF94_PARTIAL_CHARGES>
48
1 -0.43
10 0.57
11 -0.15
12 -0.15
13 -0.14
14 -0.15
15 -0.15
16 0.12
17 0.42
18 -0.15
2 -0.57
20 -0.15
22 -0.15
23 0.09
24 -0.14
25 0.63
26 -0.15
27 -0.14
28 -0.15
29 -0.15
3 -0.57
30 0.16
31 -0.15
32 0.14
33 0.16
34 0.14
38 0.15
39 0.15
4 -0.55
40 0.15
41 0.15
42 0.37
45 0.36
46 0.36
47 0.15
48 0.15
49 0.15
5 -0.99
50 0.15
51 0.15
52 0.15
53 0.15
54 0.15
58 0.15
6 -0.62
7 0.2
8 -0.14
9 0.27

> <PUBCHEM_EFFECTIVE_ROTOR_COUNT>
9

> <PUBCHEM_PHARMACOPHORE_FEATURES>
10
1 2 acceptor
1 3 acceptor
1 4 donor
1 5 cation
1 5 donor
1 6 acceptor
6 16 18 19 20 21 22 rings
6 23 24 27 28 29 31 rings
6 6 19 21 26 30 33 rings
6 8 11 12 13 14 15 rings

> <PUBCHEM_HEAVY_ATOM_COUNT>
34

> <PUBCHEM_ATOM_DEF_STEREO_COUNT>
0

> <PUBCHEM_ATOM_UDEF_STEREO_COUNT>
1

> <PUBCHEM_BOND_DEF_STEREO_COUNT>
0

> <PUBCHEM_BOND_UDEF_STEREO_COUNT>
0

> <PUBCHEM_ISOTOPIC_ATOM_COUNT>
0

> <PUBCHEM_COMPONENT_COUNT>
1

> <PUBCHEM_CACTVS_TAUTO_COUNT>
15

> <PUBCHEM_CONFORMER_ID>
038CDED100000001

> <PUBCHEM_MMFF94_ENERGY>
103.1068

> <PUBCHEM_FEATURE_SELFOVERLAP>
50.774

> <PUBCHEM_SHAPE_FINGERPRINT>
10675989 125 18340488855213736712
10771551 21 18129105511328159840
11059845 2 18124001746672730826
11386260 185 17838048205024202911
11399510 152 17243039873197801475
11479125 193 18410577266955307073
12422481 6 17531238444267613038
12559415 180 18412261697289903496
12655364 74 17475515453177424412
12717326 150 8501494799734587513
14068700 686 18410582820538619295
14429114 114 18409449176699382961
14739800 52 18187357693355131699
15320291 9 18048869698062947669
15513586 35 16450103221084032926
15773879 134 18411694383211223271
16708801 149 18267007367927520129
16988056 13 18124033425972197350
16990350 14 18408602561409555822
19053607 189 18411407410839793328
19304671 126 17775019980735531604
20058555 10 18410575080885453113
20238998 120 17978790104786320338
20609170 109 16591688372717000705
21033648 29 18193847170191330750
21223535 225 18342455989364459052
21307412 95 9582702839656079987
21772524 286 17977943815877571568
21792938 324 17832117465601582994
22033318 11 17822559608605652160
23191077 185 18341039813281669046
23569914 2 17534871184053503517
2748736 6 18339633529371764016
2838139 119 18413102866191018047
376196 1 18409452457643726635
3918712 181 18335691772219049973
437795 171 18335696109624745005
44249763 50 17700687630515258440
5047190 47 17688578378479494309
50742298 180 17313682519835183673
508180 173 17901685773286994482
5219985 13 18340205314458346878
5223283 242 17266681460280851471
550186 72 18121218951009293847
6677587 24 17632290155998816348
9849439 229 18339358681925528746
9980921 52 11891911578896185121

> <PUBCHEM_SHAPE_MULTIPOLES>
667.15
19.71
8.4
1.68
7.45
1.44
0.19
-31.2
1.64
-4.53
-0.52
0.03
-0.84
3.8

> <PUBCHEM_SHAPE_SELFOVERLAP>
1452.426

> <PUBCHEM_SHAPE_VOLUME>
361.9

> <PUBCHEM_COORDINATE_TYPE>
2
5
10

$$$$
49820218
  -OEChem-05102415043D

 52 55  0     1  0  0  0  0  0999 V2000
    2.1854   -2.4326   -1.5802 O   0  0  0  0  0  0  0  0  0  0  0  0
   -4.1441   -0.4931    0.1516 O   0  0  0  0  0  0  0  0  0  0  0  0
   -3.0602    1.5514   -0.1256 O   0  0  0  0  0  0  0  0  0  0  0  0
    2.5881   -1.2532    0.4137 N   0  0  0  0  0  0  0  0  0  0  0  0
   -0.0300   -5.3182    0.6548 N   0  0  0  0  0  0  0  0  0  0  0  0
    7.0709    3.3213   -0.0971 N   0  0  0  0  0  0  0  0  0  0  0  0
    0.9207   -3.0343    0.3907 C   0  0  1  0  0  0  0  0  0  0  0  0
   -0.4384   -2.3549    0.3271 C   0  0  0  0  0  0  0  0  0  0  0  0
    0.8890   -4.4892   -0.1209 C   0  0  0  0  0  0  0  0  0  0  0  0
    1.9598   -2.2167   -0.3927 C   0  0  0  0  0  0  0  0  0  0  0  0
   -1.0397   -1.8868    1.4954 C   0  0  0  0  0  0  0  0  0  0  0  0
   -1.0827   -2.1979   -0.9000 C   0  0  0  0  0  0  0  0  0  0  0  0
    3.5757   -0.3358    0.0525 C   0  0  0  0  0  0  0  0  0  0  0  0
   -2.2853   -1.2616    1.4366 C   0  0  0  0  0  0  0  0  0  0  0  0
   -2.3281   -1.5728   -0.9590 C   0  0  0  0  0  0  0  0  0  0  0  0
    5.0808    1.4774    0.6553 C   0  0  0  0  0  0  0  0  0  0  0  0
    4.0877    0.5477    1.0044 C   0  0  0  0  0  0  0  0  0  0  0  0
   -2.9295   -1.1046    0.2092 C   0  0  0  0  0  0  0  0  0  0  0  0
    5.5560    1.5077   -0.6721 C   0  0  0  0  0  0  0  0  0  0  0  0
    4.0477   -0.3027   -1.2576 C   0  0  0  0  0  0  0  0  0  0  0  0
    5.0339    0.6139   -1.6218 C   0  0  0  0  0  0  0  0  0  0  0  0
    5.6142    2.3758    1.5866 C   0  0  0  0  0  0  0  0  0  0  0  0
    6.5435    2.4453   -0.9817 C   0  0  0  0  0  0  0  0  0  0  0  0
    6.5922    3.2632    1.1638 C   0  0  0  0  0  0  0  0  0  0  0  0
   -4.0835    0.8906   -0.0300 C   0  0  0  0  0  0  0  0  0  0  0  0
   -5.4433    1.4853   -0.0828 C   0  0  0  0  0  0  0  0  0  0  0  0
   -5.5970    2.8617   -0.2485 C   0  0  0  0  0  0  0  0  0  0  0  0
   -6.5669    0.6670    0.0318 C   0  0  0  0  0  0  0  0  0  0  0  0
   -6.8744    3.4199   -0.2996 C   0  0  0  0  0  0  0  0  0  0  0  0
   -7.8443    1.2249   -0.0193 C   0  0  0  0  0  0  0  0  0  0  0  0
   -7.9981    2.6014   -0.1849 C   0  0  0  0  0  0  0  0  0  0  0  0
    1.2512   -3.0732    1.4388 H   0  0  0  0  0  0  0  0  0  0  0  0
    0.6040   -4.5374   -1.1783 H   0  0  0  0  0  0  0  0  0  0  0  0
    1.8948   -4.9197   -0.0488 H   0  0  0  0  0  0  0  0  0  0  0  0
   -0.5498   -2.0010    2.4586 H   0  0  0  0  0  0  0  0  0  0  0  0
   -0.6315   -2.5534   -1.8221 H   0  0  0  0  0  0  0  0  0  0  0  0
    2.2905   -1.2035    1.3857 H   0  0  0  0  0  0  0  0  0  0  0  0
   -2.7483   -0.8992    2.3504 H   0  0  0  0  0  0  0  0  0  0  0  0
   -2.8246   -1.4535   -1.9182 H   0  0  0  0  0  0  0  0  0  0  0  0
    3.7133    0.5155    2.0265 H   0  0  0  0  0  0  0  0  0  0  0  0
   -0.9855   -4.9863    0.5319 H   0  0  0  0  0  0  0  0  0  0  0  0
   -0.0134   -6.2697    0.2897 H   0  0  0  0  0  0  0  0  0  0  0  0
    3.6996   -0.9511   -2.0490 H   0  0  0  0  0  0  0  0  0  0  0  0
    5.3919    0.6277   -2.6488 H   0  0  0  0  0  0  0  0  0  0  0  0
    5.2794    2.3891    2.6194 H   0  0  0  0  0  0  0  0  0  0  0  0
    6.9532    2.5215   -1.9852 H   0  0  0  0  0  0  0  0  0  0  0  0
    7.0298    3.9751    1.8562 H   0  0  0  0  0  0  0  0  0  0  0  0
   -4.7346    3.5166   -0.3400 H   0  0  0  0  0  0  0  0  0  0  0  0
   -6.4929   -0.4089    0.1612 H   0  0  0  0  0  0  0  0  0  0  0  0
   -6.9943    4.4916   -0.4287 H   0  0  0  0  0  0  0  0  0  0  0  0
   -8.7197    0.5881    0.0697 H   0  0  0  0  0  0  0  0  0  0  0  0
   -8.9927    3.0358   -0.2247 H   0  0  0  0  0  0  0  0  0  0  0  0
  1 10  2  0  0  0  0
  2 18  1  0  0  0  0
  2 25  1  0  0  0  0
  3 25  2  0  0  0  0
  4 10  1  0  0  0  0
  4 13  1  0  0  0  0
  4 37  1  0  0  0  0
  5  9  1  0  0  0  0
  5 41  1  0  0  0  0
  5 42  1  0  0  0  0
  6 23  2  0  0  0  0
  6 24  1  0  0  0  0
  7  8  1  0  0  0  0
  7  9  1  0  0  0  0
  7 10  1  0  0  0  0
  7 32  1  0  0  0  0
  8 11  2  0  0  0  0
  8 12  1  0  0  0  0
  9 33  1  0  0  0  0
  9 34  1  0  0  0  0
 11 14  1  0  0  0  0
 11 35  1  0  0  0  0
 12 15  2  0  0  0  0
 12 36  1  0  0  0  0
 13 17  2  0  0  0  0
 13 20  1  0  0  0  0
 14 18  2  0  0  0  0
 14 38  1  0  0  0  0
 15 18  1  0  0  0  0
 15 39  1  0  0  0  0
 16 17  1  0  0  0  0
 16 19  2  0  0  0  0
 16 22  1  0  0  0  0
 17 40  1  0  0  0  0
 19 21  1  0  0  0  0
 19 23  1  0  0  0  0
 20 21  2  0  0  0  0
 20 43  1  0  0  0  0
 21 44  1  0  0  0  0
 22 24  2  0  0  0  0
 22 45  1  0  0  0  0
 23 46  1  0  0  0  0
 24 47  1  0  0  0  0
 25 26  1  0  0  0  0
 26 27  2  0  0  0  0
 26 28  1  0  0  0  0
 27 29  1  0  0  0  0
 27 48  1  0  0  0  0
 28 30  2  0  0  0  0
 28 49  1  0  0  0  0
 29 31  2  0  0  0  0
 29 50  1  0  0  0  0
 30 31  1  0  0  0  0
 30 51  1  0  0  0  0
 31 52  1  0  0  0  0
M  END
> <PUBCHEM_COMPOUND_CID>
49820218

> <PUBCHEM_CONFORMER_RMSD>
1

> <PUBCHEM_CONFORMER_DIVERSEORDER>
1
84
133
72
52
109
75
111
81
116
68
47
135
88
89
33
42
30
58
82
114
32
18
92
101
59
17
98
41
70
93
126
103
13
51
36
138
60
102
12
71
48
56
112
66
61
122
139
14
19
31
87
91
96
83
64
110
100
35
94
106
3
73
67
49
77
129
132
130
63
107
79
34
5
38
40
108
55
20
44
37
62
137
53
26
121
124
39
134
57
119
125
78
9
27
118
45
115
4
120
136
8
25
95
131
85
54
99
46
22
65
105
90
6
21
127
97
104
10
76
28
50
128
2
24
123
7
16
23
74
69
86
29
140
113
80
117
11
15
43

> <PUBCHEM_MMFF94_PARTIAL_CHARGES>
47
1 -0.57
10 0.57
11 -0.15
12 -0.15
13 0.12
14 -0.15
15 -0.15
17 -0.15
18 0.08
2 -0.23
20 -0.15
21 -0.15
22 -0.15
23 0.16
24 0.16
25 0.63
26 0.09
27 -0.15
28 -0.15
29 -0.15
3 -0.57
30 -0.15
31 -0.15
35 0.15
36 0.15
37 0.37
38 0.15
39 0.15
4 -0.55
40 0.15
41 0.36
42 0.36
43 0.15
44 0.15
45 0.15
46 0.15
47 0.15
48 0.15
49 0.15
5 -0.99
50 0.15
51 0.15
52 0.15
6 -0.62
7 0.2
8 -0.14
9 0.27

> <PUBCHEM_EFFECTIVE_ROTOR_COUNT>
8

> <PUBCHEM_PHARMACOPHORE_FEATURES>
10
1 1 acceptor
1 3 acceptor
1 4 donor
1 5 cation
1 5 donor
1 6 acceptor
6 13 16 17 19 20 21 rings
6 26 27 28 29 30 31 rings
6 6 16 19 22 23 24 rings
6 8 11 12 14 15 18 rings

> <PUBCHEM_HEAVY_ATOM_COUNT>
31

> <PUBCHEM_ATOM_DEF_STEREO_COUNT>
0

> <PUBCHEM_ATOM_UDEF_STEREO_COUNT>
1

> <PUBCHEM_BOND_DEF_STEREO_COUNT>
0

> <PUBCHEM_BOND_UDEF_STEREO_COUNT>
0

> <PUBCHEM_ISOTOPIC_ATOM_COUNT>
0

> <PUBCHEM_COMPONENT_COUNT>
1

> <PUBCHEM_CACTVS_TAUTO_COUNT>
3

> <PUBCHEM_CONFORMER_ID>
02F8323A00000001

> <PUBCHEM_MMFF94_ENERGY>
101.7727

> <PUBCHEM_FEATURE_SELFOVERLAP>
50.774

> <PUBCHEM_SHAPE_FINGERPRINT>
10533779 1 18338786892650434992
10673678 19 18340770347444331563
10675989 125 18268150851161089944
10838868 160 18341322362622170081
10842077 115 16810363282149221124
10864689 126 18413675712566903108
11135609 127 18266169544699374503
11135609 187 18411981343499428585
11421887 103 18338222881882789836
11761917 87 10591752247779490429
12013929 29 17838618856313466769
12342043 65 11386632045480299108
12895837 130 18341049734924297517
12988421 55 17676754465913163210
13383661 66 11675417619149461424
1361 87 12966831499165854013
13944108 23 18268148643727682800
14168556 18 18336551607982177779
14294032 229 18268997655762118603
14565420 104 18260265209654282083
14739800 52 18042963177933328051
14849402 71 18119246169160901866
14931854 50 17775571935424982664
15152005 290 18410572929022227492
15198563 99 17767116884244614367
15439362 3 18411702076394454974
15510800 12 8502381005198472664
15513586 35 16664595893443038892
15803439 3 16845293877684632966
15979999 66 17551803512455078806
15980000 95 17547012932093209414
16120349 189 18410013277466377134
16992787 43 18272095968503581457
16993089 31 13182442435913643925
16994733 274 18335134302696009569
19053607 189 18114758082606699708
19304671 126 17917720071639978740
19438510 23 18187363242082892034
20058555 10 18338234852525439989
20501277 180 18194961843502879853
20587220 17 18267859485407745957
20691028 202 18336828688505867532
21033648 29 18335144232386435358
21298829 104 18409729577686700877
21424621 283 18410009965788304263
21585481 104 16127830568877345561
23522609 53 17315359391922865012
23569914 152 17701280040256025478
255183 451 9655571924651234058
270888 7 18410011056878620626
2748736 6 18409440397258897740
2838139 119 18340761546966398615
3246875 12 18408042927366176435
3418910 222 16895682559135792384
34797466 226 17987238829553371327
3504750 166 11097860697076461785
3627633 1 17618223248567416651
3862424 121 13325991392201171845
3918712 181 18341889701483970512
393628 194 18263643025170537997
4112364 45 18187072923847906578
44249763 50 17845079843823593544
474113 269 11386373673428449905
508706 21 18054785363257361466
5109719 28 18410019823492714081
5219985 13 18410291423685613094
5265222 85 18267583692135080345
56633871 153 11241973702254254209
58260988 647 10231743514576746431
6176135 31 18187367653278932660
6327066 14 18411418444689241374
6695519 79 18193871239209450115
6697151 62 17178531397053289991
6712543 237 14923945648219650121
7288768 16 18113898290347126123
9849439 229 18409444795605887834
9980921 52 11676031262585989497

> <PUBCHEM_SHAPE_MULTIPOLES>
605.41
22.07
5.69
1.28
14.93
4.13
0.03
-35.55
-1.12
-1.75
0.56
-1.74
0.05
1.69

> <PUBCHEM_SHAPE_SELFOVERLAP>
1329.641

> <PUBCHEM_SHAPE_VOLUME>
322

> <PUBCHEM_COORDINATE_TYPE>
2
5
10

$$$$
127027580
  -OEChem-05102415043D

 54 56  0     1  0  0  0  0  0999 V2000
   -4.6032    1.1410    0.0906 O   0  0  0  0  0  0  0  0  0  0  0  0
    1.4492   -2.3288   -1.7243 O   0  0  0  0  0  0  0  0  0  0  0  0
   -6.8418    1.5815    0.4286 O   0  0  0  0  0  0  0  0  0  0  0  0
    2.0030   -1.3591    0.3450 N   0  0  0  0  0  0  0  0  0  0  0  0
   -0.8019   -5.3048    0.3506 N   0  0  0  0  0  0  0  0  0  0  0  0
    6.6808    3.0337    0.0223 N   0  0  0  0  0  0  0  0  0  0  0  0
    0.2491   -3.0523    0.2460 C   0  0  1  0  0  0  0  0  0  0  0  0
   -1.0757   -2.3085    0.3132 C   0  0  0  0  0  0  0  0  0  0  0  0
    0.1206   -4.4503   -0.3928 C   0  0  0  0  0  0  0  0  0  0  0  0
    1.2903   -2.2140   -0.5122 C   0  0  0  0  0  0  0  0  0  0  0  0
   -1.5962   -1.9211    1.5480 C   0  0  0  0  0  0  0  0  0  0  0  0
   -1.7687   -2.0113   -0.8603 C   0  0  0  0  0  0  0  0  0  0  0  0
   -3.5030   -0.9391    0.4358 C   0  0  0  0  0  0  0  0  0  0  0  0
   -2.8098   -1.2363    1.6092 C   0  0  0  0  0  0  0  0  0  0  0  0
   -2.9823   -1.3266   -0.7989 C   0  0  0  0  0  0  0  0  0  0  0  0
    3.0175   -0.4582    0.0183 C   0  0  0  0  0  0  0  0  0  0  0  0
   -4.8005   -0.2064    0.5007 C   0  0  0  0  0  0  0  0  0  0  0  0
    3.6166    0.3090    1.0189 C   0  0  0  0  0  0  0  0  0  0  0  0
    4.6377    1.2208    0.7052 C   0  0  0  0  0  0  0  0  0  0  0  0
   -5.3543    3.3353   -0.3707 C   0  0  0  0  0  0  0  0  0  0  0  0
    3.4295   -0.3256   -1.3056 C   0  0  0  0  0  0  0  0  0  0  0  0
    5.0519    1.3521   -0.6364 C   0  0  0  0  0  0  0  0  0  0  0  0
    4.4423    0.5747   -1.6351 C   0  0  0  0  0  0  0  0  0  0  0  0
   -5.7177    1.9381    0.1004 C   0  0  0  0  0  0  0  0  0  0  0  0
    5.2580    2.0040    1.6855 C   0  0  0  0  0  0  0  0  0  0  0  0
   -6.2254    4.3826    0.3183 C   0  0  0  0  0  0  0  0  0  0  0  0
   -5.4944    3.4202   -1.8859 C   0  0  0  0  0  0  0  0  0  0  0  0
    6.0697    2.2682   -0.9099 C   0  0  0  0  0  0  0  0  0  0  0  0
    6.2585    2.8811    1.2955 C   0  0  0  0  0  0  0  0  0  0  0  0
    0.6256   -3.2034    1.2680 H   0  0  0  0  0  0  0  0  0  0  0  0
   -0.2152   -4.3873   -1.4344 H   0  0  0  0  0  0  0  0  0  0  0  0
    1.1058   -4.9313   -0.4111 H   0  0  0  0  0  0  0  0  0  0  0  0
   -1.0670   -2.1443    2.4704 H   0  0  0  0  0  0  0  0  0  0  0  0
   -1.3802   -2.3017   -1.8323 H   0  0  0  0  0  0  0  0  0  0  0  0
   -3.2022   -0.9387    2.5780 H   0  0  0  0  0  0  0  0  0  0  0  0
   -3.5133   -1.0989   -1.7195 H   0  0  0  0  0  0  0  0  0  0  0  0
    1.7537   -1.3862    1.3313 H   0  0  0  0  0  0  0  0  0  0  0  0
   -5.5314   -0.6936   -0.1571 H   0  0  0  0  0  0  0  0  0  0  0  0
   -5.2049   -0.2239    1.5205 H   0  0  0  0  0  0  0  0  0  0  0  0
   -0.8501   -6.2181   -0.0994 H   0  0  0  0  0  0  0  0  0  0  0  0
   -1.7442   -4.9196    0.3070 H   0  0  0  0  0  0  0  0  0  0  0  0
    3.2888    0.1995    2.0516 H   0  0  0  0  0  0  0  0  0  0  0  0
   -4.3129    3.5325   -0.0868 H   0  0  0  0  0  0  0  0  0  0  0  0
    3.0132   -0.8816   -2.1336 H   0  0  0  0  0  0  0  0  0  0  0  0
    4.7527    0.6671   -2.6735 H   0  0  0  0  0  0  0  0  0  0  0  0
   -6.1414    4.3013    1.4075 H   0  0  0  0  0  0  0  0  0  0  0  0
   -5.9208    5.3937    0.0287 H   0  0  0  0  0  0  0  0  0  0  0  0
   -7.2826    4.2590    0.0587 H   0  0  0  0  0  0  0  0  0  0  0  0
   -6.5243    3.2200   -2.2019 H   0  0  0  0  0  0  0  0  0  0  0  0
   -5.2110    4.4129   -2.2503 H   0  0  0  0  0  0  0  0  0  0  0  0
   -4.8517    2.6822   -2.3781 H   0  0  0  0  0  0  0  0  0  0  0  0
    4.9724    1.9369    2.7308 H   0  0  0  0  0  0  0  0  0  0  0  0
    6.4358    2.4182   -1.9219 H   0  0  0  0  0  0  0  0  0  0  0  0
    6.7628    3.5052    2.0262 H   0  0  0  0  0  0  0  0  0  0  0  0
  1 17  1  0  0  0  0
  1 24  1  0  0  0  0
  2 10  2  0  0  0  0
  3 24  2  0  0  0  0
  4 10  1  0  0  0  0
  4 16  1  0  0  0  0
  4 37  1  0  0  0  0
  5  9  1  0  0  0  0
  5 40  1  0  0  0  0
  5 41  1  0  0  0  0
  6 28  2  0  0  0  0
  6 29  1  0  0  0  0
  7  8  1  0  0  0  0
  7  9  1  0  0  0  0
  7 10  1  0  0  0  0
  7 30  1  0  0  0  0
  8 11  2  0  0  0  0
  8 12  1  0  0  0  0
  9 31  1  0  0  0  0
  9 32  1  0  0  0  0
 11 14  1  0  0  0  0
 11 33  1  0  0  0  0
 12 15  2  0  0  0  0
 12 34  1  0  0  0  0
 13 14  2  0  0  0  0
 13 15  1  0  0  0  0
 13 17  1  0  0  0  0
 14 35  1  0  0  0  0
 15 36  1  0  0  0  0
 16 18  2  0  0  0  0
 16 21  1  0  0  0  0
 17 38  1  0  0  0  0
 17 39  1  0  0  0  0
 18 19  1  0  0  0  0
 18 42  1  0  0  0  0
 19 22  2  0  0  0  0
 19 25  1  0  0  0  0
 20 24  1  0  0  0  0
 20 26  1  0  0  0  0
 20 27  1  0  0  0  0
 20 43  1  0  0  0  0
 21 23  2  0  0  0  0
 21 44  1  0  0  0  0
 22 23  1  0  0  0  0
 22 28  1  0  0  0  0
 23 45  1  0  0  0  0
 25 29  2  0  0  0  0
 25 52  1  0  0  0  0
 26 46  1  0  0  0  0
 26 47  1  0  0  0  0
 26 48  1  0  0  0  0
 27 49  1  0  0  0  0
 27 50  1  0  0  0  0
 27 51  1  0  0  0  0
 28 53  1  0  0  0  0
 29 54  1  0  0  0  0
M  END
> <PUBCHEM_COMPOUND_CID>
127027580

> <PUBCHEM_CONFORMER_RMSD>
1

> <PUBCHEM_CONFORMER_DIVERSEORDER>
1
88
60
51
62
50
4
65
33
80
13
86
32
16
77
85
82
79
17
12
6
41
34
26
5
53
71
28
49
14
75
63
58
59
19
47
78
43
9
11
42
24
54
21
81
25
52
29
64
76
66
45
73
72
87
39
40
18
10
38
22
23
67
83
56
15
30
44
46
68
20
7
37
48
31
70
35
3
84
36
61
74
57
27
55
8
69
2

> <PUBCHEM_MMFF94_PARTIAL_CHARGES>
38
1 -0.43
10 0.57
11 -0.15
12 -0.15
13 -0.14
14 -0.15
15 -0.15
16 0.12
17 0.42
18 -0.15
2 -0.57
20 0.06
21 -0.15
23 -0.15
24 0.66
25 -0.15
28 0.16
29 0.16
3 -0.57
33 0.15
34 0.15
35 0.15
36 0.15
37 0.37
4 -0.55
40 0.36
41 0.36
42 0.15
44 0.15
45 0.15
5 -0.99
52 0.15
53 0.15
54 0.15
6 -0.62
7 0.2
8 -0.14
9 0.27

> <PUBCHEM_EFFECTIVE_ROTOR_COUNT>
9

> <PUBCHEM_PHARMACOPHORE_FEATURES>
10
1 2 acceptor
1 3 acceptor
1 4 donor
1 5 cation
1 5 donor
1 6 acceptor
3 20 26 27 hydrophobe
6 16 18 19 21 22 23 rings
6 6 19 22 25 28 29 rings
6 8 11 12 13 14 15 rings

> <PUBCHEM_HEAVY_ATOM_COUNT>
29

> <PUBCHEM_ATOM_DEF_STEREO_COUNT>
0

> <PUBCHEM_ATOM_UDEF_STEREO_COUNT>
1

> <PUBCHEM_BOND_DEF_STEREO_COUNT>
0

> <PUBCHEM_BOND_UDEF_STEREO_COUNT>
0

> <PUBCHEM_ISOTOPIC_ATOM_COUNT>
0

> <PUBCHEM_COMPONENT_COUNT>
1

> <PUBCHEM_CACTVS_TAUTO_COUNT>
27

> <PUBCHEM_CONFORMER_ID>
0792497C00000001

> <PUBCHEM_MMFF94_ENERGY>
75.4933

> <PUBCHEM_FEATURE_SELFOVERLAP>
50.773

> <PUBCHEM_SHAPE_FINGERPRINT>
105312 117 18340487893157204566
10675989 125 18123754153780660913
10864689 126 18341898472424327912
10937287 8 18411980230860207855
11059845 2 18194372633791331026
11062273 29 18198624320322646294
11135609 201 18409161130591397595
11386260 185 17476068035305451135
12107183 9 18334844014663413210
12422481 6 17385722435607710717
12633257 1 16298390209575153950
12988421 55 17749657571639752835
13383661 66 11386635283628281516
13944108 23 18052542066925625376
13947930 73 8934991556013246113
14251764 30 8935004775890219544
14251764 75 18269843025800989353
14429114 114 18265615373622864957
14739800 52 17970062237197069411
14950920 106 16299516174111812248
15198563 99 17982447406619141535
15439362 3 18411984633555263630
15513586 35 16809275117798452548
15803439 3 16845572036714326630
15980000 95 17331123793598096726
16120349 189 18408879650855418485
16988056 13 17834677093556789806
17492 89 8862641505420936495
1768 210 18337376168388054693
19053607 189 18115039519245501661
19304671 126 17774167794646735965
19438510 23 18260550013261847729
20238998 120 17545598951122732466
20691028 202 18409450305964760148
20775438 99 12750936872329802676
21033648 29 18336837471402627822
21196832 93 10519697926010729992
21307412 95 10015591563091219579
21388113 180 18411418367527899909
21585480 29 12469791813068447440
22033318 11 17749101197993723752
229767 8 10447057590852818461
23191077 185 18339349804402396007
23569914 152 17486234227316644892
270888 7 18411418427277283067
2748736 6 18337662049415764805
2838139 119 18341044113075785991
3418910 222 17112135699344944248
376196 1 18335707079245447595
3862424 121 13038320667510300005
393628 179 18270103733999459296
437795 171 18045495310089538765
44249763 50 17916855954089232400
474113 269 12107795151197603721
508706 21 18055628671158444842
5219985 13 18410573985394473183
57724786 102 18260542308322996978
6695519 79 18123222115393094203
7288768 16 18114181947499454595
7918774 8 8718829798968922169
9849439 229 18410007728268605187
9980921 52 11676320421417630089

> <PUBCHEM_SHAPE_MULTIPOLES>
564.26
18.21
6.25
1.52
0.9
1.98
-0.11
-30.85
0.65
5.4
-0.32
-0.8
-0.35
2.36

> <PUBCHEM_SHAPE_SELFOVERLAP>
1205.672

> <PUBCHEM_SHAPE_VOLUME>
311.7

> <PUBCHEM_COORDINATE_TYPE>
2
5
10

$$$$
134128281
  -OEChem-05102415043D

 43 45  0     1  0  0  0  0  0999 V2000
    0.4636    1.9912   -1.4133 O   0  0  0  0  0  0  0  0  0  0  0  0
    4.6440   -3.8547   -0.8519 O   0  0  0  0  0  0  0  0  0  0  0  0
   -0.3986    0.9128    0.4901 N   0  0  0  0  0  0  0  0  0  0  0  0
    3.7536    3.3613    0.9379 N   0  0  0  0  0  0  0  0  0  0  0  0
   -6.4506   -1.1424   -0.1674 N   0  0  0  0  0  0  0  0  0  0  0  0
    1.8854    1.7698    0.5297 C   0  0  1  0  0  0  0  0  0  0  0  0
    2.8013    0.5719    0.3324 C   0  0  0  0  0  0  0  0  0  0  0  0
    2.5536    3.1057    0.1451 C   0  0  0  0  0  0  0  0  0  0  0  0
    0.5830    1.5781   -0.2632 C   0  0  0  0  0  0  0  0  0  0  0  0
    3.2974    0.2751   -0.9371 C   0  0  0  0  0  0  0  0  0  0  0  0
    3.1430   -0.2316    1.4203 C   0  0  0  0  0  0  0  0  0  0  0  0
   -1.6945    0.5661    0.1057 C   0  0  0  0  0  0  0  0  0  0  0  0
    4.4769   -1.6288   -0.0309 C   0  0  0  0  0  0  0  0  0  0  0  0
    4.1351   -0.8253   -1.1186 C   0  0  0  0  0  0  0  0  0  0  0  0
    3.9807   -1.3320    1.2386 C   0  0  0  0  0  0  0  0  0  0  0  0
   -3.8408   -0.4506    0.6311 C   0  0  0  0  0  0  0  0  0  0  0  0
   -2.5345   -0.0941    1.0041 C   0  0  0  0  0  0  0  0  0  0  0  0
   -4.2950   -0.1324   -0.6656 C   0  0  0  0  0  0  0  0  0  0  0  0
   -2.1469    0.8786   -1.1741 C   0  0  0  0  0  0  0  0  0  0  0  0
   -3.4412    0.5324   -1.5614 C   0  0  0  0  0  0  0  0  0  0  0  0
    5.3722   -2.8056   -0.2257 C   0  0  0  0  0  0  0  0  0  0  0  0
   -4.7069   -1.1127    1.5088 C   0  0  0  0  0  0  0  0  0  0  0  0
   -5.5992   -0.5023   -1.0003 C   0  0  0  0  0  0  0  0  0  0  0  0
   -5.9816   -1.4305    1.0654 C   0  0  0  0  0  0  0  0  0  0  0  0
    1.6182    1.8429    1.5938 H   0  0  0  0  0  0  0  0  0  0  0  0
    2.8187    3.1315   -0.9182 H   0  0  0  0  0  0  0  0  0  0  0  0
    1.8441    3.9253    0.3098 H   0  0  0  0  0  0  0  0  0  0  0  0
    3.0422    0.8862   -1.7981 H   0  0  0  0  0  0  0  0  0  0  0  0
    2.7632   -0.0137    2.4148 H   0  0  0  0  0  0  0  0  0  0  0  0
   -0.1431    0.6380    1.4361 H   0  0  0  0  0  0  0  0  0  0  0  0
    4.5151   -1.0478   -2.1123 H   0  0  0  0  0  0  0  0  0  0  0  0
    4.2369   -1.9504    2.0947 H   0  0  0  0  0  0  0  0  0  0  0  0
   -2.1734   -0.3348    2.0028 H   0  0  0  0  0  0  0  0  0  0  0  0
    4.1568    4.2547    0.6581 H   0  0  0  0  0  0  0  0  0  0  0  0
    4.4612    2.6571    0.7341 H   0  0  0  0  0  0  0  0  0  0  0  0
   -1.5562    1.3851   -1.9242 H   0  0  0  0  0  0  0  0  0  0  0  0
   -3.7796    0.7829   -2.5643 H   0  0  0  0  0  0  0  0  0  0  0  0
    5.7653   -3.1751    0.7276 H   0  0  0  0  0  0  0  0  0  0  0  0
    6.2261   -2.5375   -0.8576 H   0  0  0  0  0  0  0  0  0  0  0  0
   -4.4012   -1.3777    2.5164 H   0  0  0  0  0  0  0  0  0  0  0  0
   -6.0113   -0.2872   -1.9825 H   0  0  0  0  0  0  0  0  0  0  0  0
   -6.6818   -1.9439    1.7164 H   0  0  0  0  0  0  0  0  0  0  0  0
    5.2602   -4.5974   -0.9713 H   0  0  0  0  0  0  0  0  0  0  0  0
  1  9  2  0  0  0  0
  2 21  1  0  0  0  0
  2 43  1  0  0  0  0
  3  9  1  0  0  0  0
  3 12  1  0  0  0  0
  3 30  1  0  0  0  0
  4  8  1  0  0  0  0
  4 34  1  0  0  0  0
  4 35  1  0  0  0  0
  5 23  2  0  0  0  0
  5 24  1  0  0  0  0
  6  7  1  0  0  0  0
  6  8  1  0  0  0  0
  6  9  1  0  0  0  0
  6 25  1  0  0  0  0
  7 10  2  0  0  0  0
  7 11  1  0  0  0  0
  8 26  1  0  0  0  0
  8 27  1  0  0  0  0
 10 14  1  0  0  0  0
 10 28  1  0  0  0  0
 11 15  2  0  0  0  0
 11 29  1  0  0  0  0
 12 17  2  0  0  0  0
 12 19  1  0  0  0  0
 13 14  2  0  0  0  0
 13 15  1  0  0  0  0
 13 21  1  0  0  0  0
 14 31  1  0  0  0  0
 15 32  1  0  0  0  0
 16 17  1  0  0  0  0
 16 18  2  0  0  0  0
 16 22  1  0  0  0  0
 17 33  1  0  0  0  0
 18 20  1  0  0  0  0
 18 23  1  0  0  0  0
 19 20  2  0  0  0  0
 19 36  1  0  0  0  0
 20 37  1  0  0  0  0
 21 38  1  0  0  0  0
 21 39  1  0  0  0  0
 22 24  2  0  0  0  0
 22 40  1  0  0  0  0
 23 41  1  0  0  0  0
 24 42  1  0  0  0  0
M  END
> <PUBCHEM_COMPOUND_CID>
134128281

> <PUBCHEM_CONFORMER_RMSD>
0.8

> <PUBCHEM_CONFORMER_DIVERSEORDER>
1
22
27
29
13
12
10
34
16
6
33
3
32
9
35
11
23
15
7
25
18
19
20
31
4
2
14
30
26
21
5
28
24
17
8

> <PUBCHEM_MMFF94_PARTIAL_CHARGES>
36
1 -0.57
10 -0.15
11 -0.15
12 0.12
13 -0.14
14 -0.15
15 -0.15
17 -0.15
19 -0.15
2 -0.68
20 -0.15
21 0.42
22 -0.15
23 0.16
24 0.16
28 0.15
29 0.15
3 -0.55
30 0.37
31 0.15
32 0.15
33 0.15
34 0.36
35 0.36
36 0.15
37 0.15
4 -0.99
40 0.15
41 0.15
42 0.15
43 0.4
5 -0.62
6 0.2
7 -0.14
8 0.27
9 0.57

> <PUBCHEM_EFFECTIVE_ROTOR_COUNT>
6

> <PUBCHEM_PHARMACOPHORE_FEATURES>
10
1 1 acceptor
1 2 acceptor
1 2 donor
1 3 donor
1 4 cation
1 4 donor
1 5 acceptor
6 12 16 17 18 19 20 rings
6 5 16 18 22 23 24 rings
6 7 10 11 13 14 15 rings

> <PUBCHEM_HEAVY_ATOM_COUNT>
24

> <PUBCHEM_ATOM_DEF_STEREO_COUNT>
1

> <PUBCHEM_ATOM_UDEF_STEREO_COUNT>
0

> <PUBCHEM_BOND_DEF_STEREO_COUNT>
0

> <PUBCHEM_BOND_UDEF_STEREO_COUNT>
0

> <PUBCHEM_ISOTOPIC_ATOM_COUNT>
0

> <PUBCHEM_COMPONENT_COUNT>
1

> <PUBCHEM_CACTVS_TAUTO_COUNT>
27

> <PUBCHEM_CONFORMER_ID>
07FEA29900000001

> <PUBCHEM_MMFF94_ENERGY>
69.1446

> <PUBCHEM_FEATURE_SELFOVERLAP>
50.774

> <PUBCHEM_SHAPE_FINGERPRINT>
10319926 262 14045741521563079204
10369192 42 17680707326849549052
10498660 4 7997675524432723406
10912923 1 17417533639577974529
10928967 22 18113617876338237547
11128504 68 14201394989129856499
11595378 159 16916798400320650177
11796584 16 17968652692890917958
12107183 9 18057055609818914201
12363563 72 18339082575784012372
12616971 3 17704351091632153925
12633257 1 15482377699497668930
13073987 5 18342462590708645857
13533116 47 18342177812527200249
13782708 43 18261392282762435899
13911852 28 18268995284744803990
13914758 101 18060417985802686033
13955234 65 18200590431885970888
14251740 57 18335703874745423427
14251764 30 18338802204350678974
14341114 328 15123496021896857402
14347424 109 18272938232658663225
14528608 73 12757149095546278451
14848178 96 10809639103478937718
14866123 147 17977667507102011113
14910302 57 17603857932071429951
15183329 4 16877941607765540047
15575132 122 12973872694806230647
17349148 13 17988650717962028271
17844677 252 18411138048103321577
17859628 70 18413389852243076880
17870717 6 17385443216063810115
1813 80 18131078082722536820
193927 3 18409167679756959232
20645477 70 18408599292507089272
20693207 138 17894623751571329349
20775438 99 18190733335617772930
21033650 10 16153984634428674941
21130935 74 18339650057445409371
21279426 13 18041548179810086117
21344244 78 17846770828193395024
21682296 61 18410577258597571439
22061861 79 18333728040087828743
2215653 11 18040709286655146615
2303208 19 17894917364879752395
23559900 14 17676208000344352325
23569914 152 17616780290675473359
239999 70 17968372459307819312
3004659 81 17095519578693056458
3089732 80 18333736810116278243
312423 11 18412835684965740761
314194 84 18343018883193375390
3421961 26 18412262844140031800
345986 75 17703795790672829680
34797466 226 17023190478350168637
44317340 157 8718556025565165293
46194498 28 17821451278929106004
465052 167 18413111662399721166
5104073 3 18410571786661712777
5309563 4 18268993072968612798
543368 44 11963397349498823895
6823239 73 17749383793223208064
7970288 3 18340770325869736078
8863177 126 18261116326206738651
960060 61 17458348545686595446

> <PUBCHEM_SHAPE_MULTIPOLES>
467.23
15
3.13
1.44
12.01
0.05
0.02
-11.53
-0.1
-6.58
0.04
0.47
-0.09
1.97

> <PUBCHEM_SHAPE_SELFOVERLAP>
1012.911

> <PUBCHEM_SHAPE_VOLUME>
253.9

> <PUBCHEM_COORDINATE_TYPE>
2
5
10

$$$$
?