57509993
  -OEChem-05102415043D

 51 55  0     0  0  0  0  0  0999 V2000
    7.6991    1.2551   -0.0503 O   0  0  0  0  0  0  0  0  0  0  0  0
   -2.4551    0.2156    2.0075 O   0  0  0  0  0  0  0  0  0  0  0  0
   -4.1172    0.0666    0.4307 N   0  0  0  0  0  0  0  0  0  0  0  0
    5.5857    2.1218   -0.0347 N   0  0  0  0  0  0  0  0  0  0  0  0
    4.2428    1.9949   -0.0540 N   0  0  0  0  0  0  0  0  0  0  0  0
   -1.8896    0.2714   -0.2565 N   0  0  0  0  0  0  0  0  0  0  0  0
    4.9039   -2.9329    0.3929 C   0  0  0  0  0  0  0  0  0  0  0  0
    6.2223   -2.7915   -0.3562 C   0  0  0  0  0  0  0  0  0  0  0  0
    3.9298   -1.8190   -0.0006 C   0  0  0  0  0  0  0  0  0  0  0  0
    6.8775   -1.4420   -0.0581 C   0  0  0  0  0  0  0  0  0  0  0  0
    4.5737   -0.4587   -0.0607 C   0  0  0  0  0  0  0  0  0  0  0  0
    5.9054   -0.2909   -0.0608 C   0  0  0  0  0  0  0  0  0  0  0  0
    3.7655    0.7927   -0.0787 C   0  0  0  0  0  0  0  0  0  0  0  0
   -5.1907   -0.0336    1.4290 C   0  0  0  0  0  0  0  0  0  0  0  0
   -4.6425    0.0212   -0.9465 C   0  0  0  0  0  0  0  0  0  0  0  0
   -6.4310   -0.1452    0.6080 C   0  0  0  0  0  0  0  0  0  0  0  0
   -6.1167   -0.1140   -0.7559 C   0  0  0  0  0  0  0  0  0  0  0  0
    6.4815    1.0816   -0.0521 C   0  0  0  0  0  0  0  0  0  0  0  0
    2.2971    0.6566   -0.1257 C   0  0  0  0  0  0  0  0  0  0  0  0
   -2.7759    0.1885    0.8180 C   0  0  0  0  0  0  0  0  0  0  0  0
   -7.7405   -0.2664    1.0376 C   0  0  0  0  0  0  0  0  0  0  0  0
   -7.1050   -0.2033   -1.7201 C   0  0  0  0  0  0  0  0  0  0  0  0
    1.5659    0.5852    1.0600 C   0  0  0  0  0  0  0  0  0  0  0  0
    1.6398    0.6000   -1.3548 C   0  0  0  0  0  0  0  0  0  0  0  0
   -0.4794    0.4002   -0.2123 C   0  0  0  0  0  0  0  0  0  0  0  0
   -8.7455   -0.3571    0.0720 C   0  0  0  0  0  0  0  0  0  0  0  0
   -8.4302   -0.3257   -1.2964 C   0  0  0  0  0  0  0  0  0  0  0  0
    0.1777    0.4571    1.0168 C   0  0  0  0  0  0  0  0  0  0  0  0
    0.2515    0.4718   -1.3981 C   0  0  0  0  0  0  0  0  0  0  0  0
    5.0908   -2.8957    1.4738 H   0  0  0  0  0  0  0  0  0  0  0  0
    4.4524   -3.9086    0.1808 H   0  0  0  0  0  0  0  0  0  0  0  0
    6.0413   -2.8833   -1.4348 H   0  0  0  0  0  0  0  0  0  0  0  0
    6.9044   -3.6027   -0.0776 H   0  0  0  0  0  0  0  0  0  0  0  0
    3.1082   -1.8310    0.7233 H   0  0  0  0  0  0  0  0  0  0  0  0
    3.5018   -2.0465   -0.9848 H   0  0  0  0  0  0  0  0  0  0  0  0
    7.6693   -1.2733   -0.7977 H   0  0  0  0  0  0  0  0  0  0  0  0
    7.3595   -1.4857    0.9268 H   0  0  0  0  0  0  0  0  0  0  0  0
   -5.0200   -0.9220    2.0446 H   0  0  0  0  0  0  0  0  0  0  0  0
   -5.1837    0.8685    2.0483 H   0  0  0  0  0  0  0  0  0  0  0  0
   -4.3812    0.9517   -1.4590 H   0  0  0  0  0  0  0  0  0  0  0  0
   -4.2169   -0.8446   -1.4623 H   0  0  0  0  0  0  0  0  0  0  0  0
    5.9171    3.0811   -0.0200 H   0  0  0  0  0  0  0  0  0  0  0  0
   -7.9859   -0.2910    2.0937 H   0  0  0  0  0  0  0  0  0  0  0  0
   -6.8633   -0.1795   -2.7771 H   0  0  0  0  0  0  0  0  0  0  0  0
    2.0692    0.6286    2.0227 H   0  0  0  0  0  0  0  0  0  0  0  0
    2.1999    0.6546   -2.2848 H   0  0  0  0  0  0  0  0  0  0  0  0
   -2.2781    0.2383   -1.1938 H   0  0  0  0  0  0  0  0  0  0  0  0
   -9.7829   -0.4531    0.3810 H   0  0  0  0  0  0  0  0  0  0  0  0
   -9.2269   -0.3978   -2.0320 H   0  0  0  0  0  0  0  0  0  0  0  0
   -0.3131    0.4083    1.9779 H   0  0  0  0  0  0  0  0  0  0  0  0
   -0.2481    0.4288   -2.3625 H   0  0  0  0  0  0  0  0  0  0  0  0
  1 18  2  0  0  0  0
  2 20  2  0  0  0  0
  3 14  1  0  0  0  0
  3 15  1  0  0  0  0
  3 20  1  0  0  0  0
  4  5  1  0  0  0  0
  4 18  1  0  0  0  0
  4 42  1  0  0  0  0
  5 13  2  0  0  0  0
  6 20  1  0  0  0  0
  6 25  1  0  0  0  0
  6 47  1  0  0  0  0
  7  8  1  0  0  0  0
  7  9  1  0  0  0  0
  7 30  1  0  0  0  0
  7 31  1  0  0  0  0
  8 10  1  0  0  0  0
  8 32  1  0  0  0  0
  8 33  1  0  0  0  0
  9 11  1  0  0  0  0
  9 34  1  0  0  0  0
  9 35  1  0  0  0  0
 10 12  1  0  0  0  0
 10 36  1  0  0  0  0
 10 37  1  0  0  0  0
 11 12  2  0  0  0  0
 11 13  1  0  0  0  0
 12 18  1  0  0  0  0
 13 19  1  0  0  0  0
 14 16  1  0  0  0  0
 14 38  1  0  0  0  0
 14 39  1  0  0  0  0
 15 17  1  0  0  0  0
 15 40  1  0  0  0  0
 15 41  1  0  0  0  0
 16 17  1  0  0  0  0
 16 21  2  0  0  0  0
 17 22  2  0  0  0  0
 19 23  2  0  0  0  0
 19 24  1  0  0  0  0
 21 26  1  0  0  0  0
 21 43  1  0  0  0  0
 22 27  1  0  0  0  0
 22 44  1  0  0  0  0
 23 28  1  0  0  0  0
 23 45  1  0  0  0  0
 24 29  2  0  0  0  0
 24 46  1  0  0  0  0
 25 28  2  0  0  0  0
 25 29  1  0  0  0  0
 26 27  2  0  0  0  0
 26 48  1  0  0  0  0
 27 49  1  0  0  0  0
 28 50  1  0  0  0  0
 29 51  1  0  0  0  0
M  END
> <PUBCHEM_COMPOUND_CID>
57509993

> <PUBCHEM_CONFORMER_RMSD>
0.8

> <PUBCHEM_CONFORMER_DIVERSEORDER>
1
16
15
23
19
5
10
9
17
14
22
18
8
13
12
4
11
2
21
24
20
6
7
3

> <PUBCHEM_MMFF94_PARTIAL_CHARGES>
37
1 -0.57
10 0.14
11 -0.12
12 -0.12
13 0.35
14 0.44
15 0.44
16 -0.14
17 -0.14
18 0.62
19 0.09
2 -0.57
20 0.69
21 -0.15
22 -0.15
23 -0.15
24 -0.15
25 0.12
26 -0.15
27 -0.15
28 -0.15
29 -0.15
3 -0.66
4 -0.37
42 0.37
43 0.15
44 0.15
45 0.15
46 0.15
47 0.37
48 0.15
49 0.15
5 -0.51
50 0.15
51 0.15
6 -0.55
9 0.14

> <PUBCHEM_EFFECTIVE_ROTOR_COUNT>
5.4

> <PUBCHEM_PHARMACOPHORE_FEATURES>
10
1 1 acceptor
1 2 acceptor
1 4 donor
1 5 acceptor
1 6 donor
5 3 14 15 16 17 rings
6 16 17 21 22 26 27 rings
6 19 23 24 25 28 29 rings
6 4 5 11 12 13 18 rings
6 7 8 9 10 11 12 rings

> <PUBCHEM_HEAVY_ATOM_COUNT>
29

> <PUBCHEM_ATOM_DEF_STEREO_COUNT>
0

> <PUBCHEM_ATOM_UDEF_STEREO_COUNT>
0

> <PUBCHEM_BOND_DEF_STEREO_COUNT>
0

> <PUBCHEM_BOND_UDEF_STEREO_COUNT>
0

> <PUBCHEM_ISOTOPIC_ATOM_COUNT>
0

> <PUBCHEM_COMPONENT_COUNT>
1

> <PUBCHEM_CACTVS_TAUTO_COUNT>
8

> <PUBCHEM_CONFORMER_ID>
036D886900000001

> <PUBCHEM_MMFF94_ENERGY>
85.0423

> <PUBCHEM_FEATURE_SELFOVERLAP>
50.848

> <PUBCHEM_SHAPE_FINGERPRINT>
10 15 14764337249911612506
10066227 49 18409448047002139043
10299344 5 17989487429162525663
10319688 140 17896591795860558482
106641 1 16415190179396457258
10951579 204 16878785963670124511
11315181 36 17418376926826809985
11719270 70 16702305633060627951
12082328 90 18409448077825883325
12133447 93 16226601884886665535
12236239 1 17846501413806142792
12741549 16 17822282497579699004
13533116 47 18343019978378316034
13560911 43 17203612601427315569
13617811 41 15719395010366531406
13668630 136 17968099729269411251
13685833 64 18260832583196703307
13914758 101 18410576141958627177
14068700 675 16917069979951362497
14118638 360 18410295779167612072
14170010 4 18187366541008288348
14251764 18 17775284971674726367
14251764 46 14201113522606151353
14294032 229 16343164432388237753
15119646 104 18059859433062547047
15183329 4 18412541007665276203
15198563 99 17677046829038340901
15328684 2 17274269331304400187
15419008 47 17676198092024470357
15419008 91 17386274498035704501
15510794 2 17749391476840384475
1577012 14 17846226531340650129
15840311 113 17346597522179727360
15849732 13 17822009830830942383
16120349 18 18410571825078742268
16989713 51 15358280285506730809
19315958 150 18261397779871766058
20157964 124 18409168831451928524
20165401 70 18201718397646203062
20771845 140 16630239213593452558
21315759 40 17989207062282271417
21344244 78 18059847321950891072
22224240 67 11815894557465735733
22956985 138 16484183292793990302
23081809 10 18060425703072940401
23522609 53 17630634342885503801
23559900 14 18336547230334434489
23569943 247 17461434728897654810
23576562 1 14346664711686534423
34797466 226 17386009489857714900
3633792 109 18334857182510279257
4073 2 18261959677463482106
4098825 35 18337952286542302345
4325135 7 16773801415702123701
44880568 143 17385722461483367269
5219985 9 17561363985391404305
59682541 35 14620505740246812403
5969126 39 18343300349907985009
59755656 215 17095240298175667243
9953998 17 11959726097891249389

> <PUBCHEM_SHAPE_MULTIPOLES>
565.14
27.57
1.82
1.31
29.46
1.07
0.01
5.73
-2.87
-6.09
-0.02
2.38
-0.05
-0.17

> <PUBCHEM_SHAPE_SELFOVERLAP>
1249.237

> <PUBCHEM_SHAPE_VOLUME>
301.5

> <PUBCHEM_COORDINATE_TYPE>
2
5
10

$$$$
57510007
  -OEChem-05102415043D

 68 73  0     0  0  0  0  0  0999 V2000
   -0.0256   -0.4476   -1.9477 O   0  0  0  0  0  0  0  0  0  0  0  0
  -10.4043   -0.5985   -0.3371 O   0  0  0  0  0  0  0  0  0  0  0  0
    8.3508   -0.0351    0.1080 N   0  0  0  0  0  0  0  0  0  0  0  0
   10.2197    2.1262   -0.3326 N   0  0  0  0  0  0  0  0  0  0  0  0
    1.5853   -0.8480   -0.3616 N   0  0  0  0  0  0  0  0  0  0  0  0
   -0.6694   -0.8210    0.2646 N   0  0  0  0  0  0  0  0  0  0  0  0
   -8.3391   -1.6094   -0.3858 N   0  0  0  0  0  0  0  0  0  0  0  0
    8.0343    1.0727   -0.8018 C   0  0  0  0  0  0  0  0  0  0  0  0
    9.8007   -0.2597    0.1564 C   0  0  0  0  0  0  0  0  0  0  0  0
    8.7697    2.3500   -0.3817 C   0  0  0  0  0  0  0  0  0  0  0  0
   10.5370    1.0173    0.5756 C   0  0  0  0  0  0  0  0  0  0  0  0
    7.6499   -1.2531   -0.2937 C   0  0  0  0  0  0  0  0  0  0  0  0
    3.9087   -0.9737   -0.4847 C   0  0  0  0  0  0  0  0  0  0  0  0
    6.2085   -1.2319    0.0928 C   0  0  0  0  0  0  0  0  0  0  0  0
    3.5472   -1.2015    0.8485 C   0  0  0  0  0  0  0  0  0  0  0  0
    2.6948   -0.7383   -1.3188 C   0  0  0  0  0  0  0  0  0  0  0  0
    2.0641   -1.1346    1.0033 C   0  0  0  0  0  0  0  0  0  0  0  0
    5.2351   -0.9860   -0.8781 C   0  0  0  0  0  0  0  0  0  0  0  0
    5.8456   -1.4604    1.4303 C   0  0  0  0  0  0  0  0  0  0  0  0
    4.5038   -1.4464    1.8175 C   0  0  0  0  0  0  0  0  0  0  0  0
   10.9196    3.3443    0.0709 C   0  0  0  0  0  0  0  0  0  0  0  0
    0.2551   -0.6860   -0.7717 C   0  0  0  0  0  0  0  0  0  0  0  0
   -2.0802   -0.7167    0.1902 C   0  0  0  0  0  0  0  0  0  0  0  0
   -4.8584   -0.5105    0.0441 C   0  0  0  0  0  0  0  0  0  0  0  0
   -2.8531   -0.8805    1.3398 C   0  0  0  0  0  0  0  0  0  0  0  0
   -2.6964   -0.4498   -1.0324 C   0  0  0  0  0  0  0  0  0  0  0  0
   -6.3070   -0.4030   -0.0322 C   0  0  0  0  0  0  0  0  0  0  0  0
   -4.2421   -0.7775    1.2667 C   0  0  0  0  0  0  0  0  0  0  0  0
   -4.0855   -0.3468   -1.1054 C   0  0  0  0  0  0  0  0  0  0  0  0
   -7.1161    0.8300    0.1383 C   0  0  0  0  0  0  0  0  0  0  0  0
   -8.5180    0.7755    0.0364 C   0  0  0  0  0  0  0  0  0  0  0  0
   -6.9743   -1.5450   -0.2839 C   0  0  0  0  0  0  0  0  0  0  0  0
   -6.5138    2.0694    0.4010 C   0  0  0  0  0  0  0  0  0  0  0  0
   -9.1832   -0.5227   -0.2433 C   0  0  0  0  0  0  0  0  0  0  0  0
   -9.2958    1.9288    0.1941 C   0  0  0  0  0  0  0  0  0  0  0  0
   -7.2904    3.2200    0.5585 C   0  0  0  0  0  0  0  0  0  0  0  0
   -8.6774    3.1496    0.4554 C   0  0  0  0  0  0  0  0  0  0  0  0
    6.9616    1.2949   -0.7843 H   0  0  0  0  0  0  0  0  0  0  0  0
    8.3000    0.8206   -1.8376 H   0  0  0  0  0  0  0  0  0  0  0  0
   10.1761   -0.6013   -0.8178 H   0  0  0  0  0  0  0  0  0  0  0  0
   10.0326   -1.0423    0.8891 H   0  0  0  0  0  0  0  0  0  0  0  0
    8.3924    2.6897    0.5925 H   0  0  0  0  0  0  0  0  0  0  0  0
    8.5410    3.1356   -1.1121 H   0  0  0  0  0  0  0  0  0  0  0  0
   11.6150    0.8168    0.5531 H   0  0  0  0  0  0  0  0  0  0  0  0
   10.2735    1.2718    1.6113 H   0  0  0  0  0  0  0  0  0  0  0  0
    8.0955   -2.1261    0.2046 H   0  0  0  0  0  0  0  0  0  0  0  0
    7.7700   -1.4525   -1.3677 H   0  0  0  0  0  0  0  0  0  0  0  0
    2.6836    0.2627   -1.7606 H   0  0  0  0  0  0  0  0  0  0  0  0
    2.5705   -1.5004   -2.0940 H   0  0  0  0  0  0  0  0  0  0  0  0
    1.6453   -2.0891    1.3355 H   0  0  0  0  0  0  0  0  0  0  0  0
    1.7598   -0.3196    1.6667 H   0  0  0  0  0  0  0  0  0  0  0  0
    5.5031   -0.8078   -1.9146 H   0  0  0  0  0  0  0  0  0  0  0  0
    6.6089   -1.6514    2.1811 H   0  0  0  0  0  0  0  0  0  0  0  0
    4.2253   -1.6230    2.8506 H   0  0  0  0  0  0  0  0  0  0  0  0
   10.7157    4.1566   -0.6355 H   0  0  0  0  0  0  0  0  0  0  0  0
   12.0036    3.1853    0.0623 H   0  0  0  0  0  0  0  0  0  0  0  0
   10.6280    3.6778    1.0734 H   0  0  0  0  0  0  0  0  0  0  0  0
   -0.3124   -1.0173    1.1944 H   0  0  0  0  0  0  0  0  0  0  0  0
   -2.3855   -1.0885    2.2988 H   0  0  0  0  0  0  0  0  0  0  0  0
   -2.1718   -0.3101   -1.9664 H   0  0  0  0  0  0  0  0  0  0  0  0
   -4.8301   -0.9068    2.1723 H   0  0  0  0  0  0  0  0  0  0  0  0
   -4.5516   -0.1373   -2.0655 H   0  0  0  0  0  0  0  0  0  0  0  0
   -6.4755   -2.4988   -0.4243 H   0  0  0  0  0  0  0  0  0  0  0  0
   -5.4343    2.1644    0.4884 H   0  0  0  0  0  0  0  0  0  0  0  0
   -8.7492   -2.5188   -0.5782 H   0  0  0  0  0  0  0  0  0  0  0  0
  -10.3789    1.8952    0.1170 H   0  0  0  0  0  0  0  0  0  0  0  0
   -6.8099    4.1729    0.7620 H   0  0  0  0  0  0  0  0  0  0  0  0
   -9.2771    4.0467    0.5784 H   0  0  0  0  0  0  0  0  0  0  0  0
  1 22  2  0  0  0  0
  2 34  2  0  0  0  0
  3  8  1  0  0  0  0
  3  9  1  0  0  0  0
  3 12  1  0  0  0  0
  4 10  1  0  0  0  0
  4 11  1  0  0  0  0
  4 21  1  0  0  0  0
  5 16  1  0  0  0  0
  5 17  1  0  0  0  0
  5 22  1  0  0  0  0
  6 22  1  0  0  0  0
  6 23  1  0  0  0  0
  6 58  1  0  0  0  0
  7 32  1  0  0  0  0
  7 34  1  0  0  0  0
  7 65  1  0  0  0  0
  8 10  1  0  0  0  0
  8 38  1  0  0  0  0
  8 39  1  0  0  0  0
  9 11  1  0  0  0  0
  9 40  1  0  0  0  0
  9 41  1  0  0  0  0
 10 42  1  0  0  0  0
 10 43  1  0  0  0  0
 11 44  1  0  0  0  0
 11 45  1  0  0  0  0
 12 14  1  0  0  0  0
 12 46  1  0  0  0  0
 12 47  1  0  0  0  0
 13 15  2  0  0  0  0
 13 16  1  0  0  0  0
 13 18  1  0  0  0  0
 14 18  2  0  0  0  0
 14 19  1  0  0  0  0
 15 17  1  0  0  0  0
 15 20  1  0  0  0  0
 16 48  1  0  0  0  0
 16 49  1  0  0  0  0
 17 50  1  0  0  0  0
 17 51  1  0  0  0  0
 18 52  1  0  0  0  0
 19 20  2  0  0  0  0
 19 53  1  0  0  0  0
 20 54  1  0  0  0  0
 21 55  1  0  0  0  0
 21 56  1  0  0  0  0
 21 57  1  0  0  0  0
 23 25  2  0  0  0  0
 23 26  1  0  0  0  0
 24 27  1  0  0  0  0
 24 28  2  0  0  0  0
 24 29  1  0  0  0  0
 25 28  1  0  0  0  0
 25 59  1  0  0  0  0
 26 29  2  0  0  0  0
 26 60  1  0  0  0  0
 27 30  1  0  0  0  0
 27 32  2  0  0  0  0
 28 61  1  0  0  0  0
 29 62  1  0  0  0  0
 30 31  1  0  0  0  0
 30 33  2  0  0  0  0
 31 34  1  0  0  0  0
 31 35  2  0  0  0  0
 32 63  1  0  0  0  0
 33 36  1  0  0  0  0
 33 64  1  0  0  0  0
 35 37  1  0  0  0  0
 35 66  1  0  0  0  0
 36 37  2  0  0  0  0
 36 67  1  0  0  0  0
 37 68  1  0  0  0  0
M  END
> <PUBCHEM_COMPOUND_CID>
57510007

> <PUBCHEM_CONFORMER_RMSD>
1

> <PUBCHEM_CONFORMER_DIVERSEORDER>
1
133
151
79
125
130
54
10
134
96
138
98
129
41
137
26
121
150
91
93
112
135
107
77
113
3
132
14
61
141
19
12
145
115
127
109
131
9
40
86
101
111
28
116
43
144
95
126
78
90
53
128
67
46
35
62
139
97
89
23
81
143
13
142
117
94
103
75
124
44
118
20
100
114
136
68
58
55
6
49
24
50
56
148
42
110
84
59
108
36
48
119
85
123
92
57
82
16
122
99
18
4
72
88
60
120
47
66
149
73
102
80
70
37
2
39
7
104
140
32
52
34
63
30
22
17
87
15
38
106
76
31
29
8
45
146
83
5
71
64
105
69
147
25
11
27
51
65
33
21
74

> <PUBCHEM_MMFF94_PARTIAL_CHARGES>
51
1 -0.57
10 0.27
11 0.27
12 0.41
13 -0.14
14 -0.14
15 -0.14
16 0.44
17 0.44
18 -0.15
19 -0.15
2 -0.57
20 -0.15
21 0.27
22 0.69
23 0.12
24 0.03
25 -0.15
26 -0.15
27 -0.06
28 -0.15
29 -0.15
3 -0.81
30 0.03
31 0.09
32 -0.04
33 -0.15
34 0.54
35 -0.15
36 -0.15
37 -0.15
4 -0.81
5 -0.66
52 0.15
53 0.15
54 0.15
58 0.37
59 0.15
6 -0.55
60 0.15
61 0.15
62 0.15
63 0.15
64 0.15
65 0.37
66 0.15
67 0.15
68 0.15
7 -0.54
8 0.27
9 0.27

> <PUBCHEM_EFFECTIVE_ROTOR_COUNT>
7.8

> <PUBCHEM_PHARMACOPHORE_FEATURES>
12
1 1 acceptor
1 2 acceptor
1 3 cation
1 4 cation
1 6 donor
1 7 donor
5 5 13 15 16 17 rings
6 13 14 15 18 19 20 rings
6 23 24 25 26 28 29 rings
6 3 4 8 9 10 11 rings
6 30 31 33 35 36 37 rings
6 7 27 30 31 32 34 rings

> <PUBCHEM_HEAVY_ATOM_COUNT>
37

> <PUBCHEM_ATOM_DEF_STEREO_COUNT>
0

> <PUBCHEM_ATOM_UDEF_STEREO_COUNT>
0

> <PUBCHEM_BOND_DEF_STEREO_COUNT>
0

> <PUBCHEM_BOND_UDEF_STEREO_COUNT>
0

> <PUBCHEM_ISOTOPIC_ATOM_COUNT>
0

> <PUBCHEM_COMPONENT_COUNT>
1

> <PUBCHEM_CACTVS_TAUTO_COUNT>
4

> <PUBCHEM_CONFORMER_ID>
036D887700000001

> <PUBCHEM_MMFF94_ENERGY>
113.9364

> <PUBCHEM_FEATURE_SELFOVERLAP>
61.008

> <PUBCHEM_SHAPE_FINGERPRINT>
10580692 12 18342738508118779927
11061554 47 18187363221030620276
11181472 205 18198347256123522602
11386260 185 14548725223856516546
11534866 41 12757143568709957072
11578821 258 18343022203140746680
11607047 141 18263642867596619090
11966995 178 18260268548109453990
11973864 220 18058737892738383041
12013929 94 18337673126817351547
12089408 11 18409727339765996971
12144603 126 18408601470082089890
12559415 90 18413386523743863864
12664476 115 18186235143459216324
12758862 56 12540699253281244942
12838862 33 16298378089119572082
13150687 139 14045739326950965780
13383668 254 18336842951696593593
13530399 1 18410576158411262744
13553643 46 17603585231534330980
14117953 113 15841546371066078784
14344974 52 18334576884286425635
14428016 248 18411981360219757156
14617042 71 18261396693936578748
15061470 23 18410853253079578157
15065858 18 18334577940474113126
15145344 44 18334861658025561940
15198563 99 15410621337064494579
15247644 1 9151163256676388201
15328684 2 18043802088341957841
15419008 47 17489297552606063745
15461852 350 18343865511779580579
15510794 2 18202004291874930446
15530121 191 17917703617404380592
15604295 49 18411698794432896152
15664458 105 15574713604299808052
15840311 113 18334580145047220902
16728433 281 17559121965081498689
17686467 74 18259988193301789801
1818759 1 9007057955192461936
19315958 150 18409452458144750050
19841028 212 8358274643745107636
20105231 36 11455899049227406056
212700 22 12107503723600415976
21362267 313 18266456513045012090
21792934 111 16950280733179087638
21895431 317 11527680640098571508
23569917 315 9295288357241318568
24771293 8 18187085048709271031
249057 3 15410888574367237118
3092352 35 18412259532794606214
335352 9 14692568828122872882
3711267 37 18341906190353828728
4149490 64 11169917186917501912
44280117 145 18265336282252854791
44389302 135 7853583400817264816
44426699 302 12757735170010740334
45270241 37 18272092665816058150
4874694 18 16588020225374566690
5028188 123 18342452677945290479
54039377 194 10015866479162277880
57035037 87 18409732859331527456
6126387 218 18333452040745904027
6691757 9 18261402131518143691
67123 10 18411699893680299230
9663363 56 15647049370568907639
9937071 3 13479127991773307464

> <PUBCHEM_SHAPE_MULTIPOLES>
724.8
45.51
2.69
1.21
29.43
3.2
0.07
30.21
1.07
0.59
0.42
0.68
-0.41
-1.97

> <PUBCHEM_SHAPE_SELFOVERLAP>
1596.176

> <PUBCHEM_SHAPE_VOLUME>
389.9

> <PUBCHEM_COORDINATE_TYPE>
2
5
10

$$$$
57509995
  -OEChem-05102415043D

 47 51  0     0  0  0  0  0  0999 V2000
   -9.7174   -0.3500    0.4419 F   0  0  0  0  0  0  0  0  0  0  0  0
   -2.1423    0.3602    1.9594 O   0  0  0  0  0  0  0  0  0  0  0  0
    8.0492    1.2802    0.0670 O   0  0  0  0  0  0  0  0  0  0  0  0
   -3.8043    0.1215    0.3934 N   0  0  0  0  0  0  0  0  0  0  0  0
   -1.5737    0.2523   -0.3019 N   0  0  0  0  0  0  0  0  0  0  0  0
    4.5727    1.9209   -0.2095 N   0  0  0  0  0  0  0  0  0  0  0  0
    5.9132    2.0852   -0.1468 N   0  0  0  0  0  0  0  0  0  0  0  0
   -4.8802    0.1049    1.3941 C   0  0  0  0  0  0  0  0  0  0  0  0
   -4.3282   -0.0133   -0.9783 C   0  0  0  0  0  0  0  0  0  0  0  0
   -6.1205   -0.0505    0.5803 C   0  0  0  0  0  0  0  0  0  0  0  0
   -5.8041   -0.1187   -0.7818 C   0  0  0  0  0  0  0  0  0  0  0  0
   -7.4319   -0.1266    1.0145 C   0  0  0  0  0  0  0  0  0  0  0  0
   -6.7919   -0.2644   -1.7395 C   0  0  0  0  0  0  0  0  0  0  0  0
   -2.4621    0.2543    0.7740 C   0  0  0  0  0  0  0  0  0  0  0  0
   -8.4365   -0.2735    0.0554 C   0  0  0  0  0  0  0  0  0  0  0  0
   -8.1189   -0.3419   -1.3111 C   0  0  0  0  0  0  0  0  0  0  0  0
   -0.1622    0.3673   -0.2640 C   0  0  0  0  0  0  0  0  0  0  0  0
    2.6171    0.5967   -0.1899 C   0  0  0  0  0  0  0  0  0  0  0  0
    4.0880    0.7187   -0.1495 C   0  0  0  0  0  0  0  0  0  0  0  0
    4.9333   -0.4909   -0.0433 C   0  0  0  0  0  0  0  0  0  0  0  0
    0.4941    0.5027    0.9594 C   0  0  0  0  0  0  0  0  0  0  0  0
    0.5712    0.3469   -1.4504 C   0  0  0  0  0  0  0  0  0  0  0  0
    1.8836    0.6173    0.9965 C   0  0  0  0  0  0  0  0  0  0  0  0
    1.9607    0.4616   -1.4133 C   0  0  0  0  0  0  0  0  0  0  0  0
    6.3101   -0.2951    0.0377 C   0  0  0  0  0  0  0  0  0  0  0  0
    4.4187   -1.7916   -0.0441 C   0  0  0  0  0  0  0  0  0  0  0  0
    6.8410    1.0766   -0.0082 C   0  0  0  0  0  0  0  0  0  0  0  0
    7.1776   -1.3871    0.1423 C   0  0  0  0  0  0  0  0  0  0  0  0
    5.2839   -2.8828    0.0596 C   0  0  0  0  0  0  0  0  0  0  0  0
    6.6597   -2.6813    0.1563 C   0  0  0  0  0  0  0  0  0  0  0  0
   -4.8635    1.0487    1.9477 H   0  0  0  0  0  0  0  0  0  0  0  0
   -4.7207   -0.7393    2.0716 H   0  0  0  0  0  0  0  0  0  0  0  0
   -4.0559    0.8766   -1.5534 H   0  0  0  0  0  0  0  0  0  0  0  0
   -3.9117   -0.9174   -1.4322 H   0  0  0  0  0  0  0  0  0  0  0  0
   -7.6793   -0.0742    2.0690 H   0  0  0  0  0  0  0  0  0  0  0  0
   -6.5485   -0.3174   -2.7950 H   0  0  0  0  0  0  0  0  0  0  0  0
   -8.9155   -0.4563   -2.0412 H   0  0  0  0  0  0  0  0  0  0  0  0
   -1.9614    0.1584   -1.2354 H   0  0  0  0  0  0  0  0  0  0  0  0
    0.0016    0.5274    1.9205 H   0  0  0  0  0  0  0  0  0  0  0  0
    0.0722    0.2423   -2.4104 H   0  0  0  0  0  0  0  0  0  0  0  0
    2.3863    0.7223    1.9546 H   0  0  0  0  0  0  0  0  0  0  0  0
    2.5225    0.4447   -2.3437 H   0  0  0  0  0  0  0  0  0  0  0  0
    3.3530   -1.9857   -0.1172 H   0  0  0  0  0  0  0  0  0  0  0  0
    8.2534   -1.2507    0.2083 H   0  0  0  0  0  0  0  0  0  0  0  0
    6.2178    3.0524   -0.1941 H   0  0  0  0  0  0  0  0  0  0  0  0
    4.8829   -3.8924    0.0649 H   0  0  0  0  0  0  0  0  0  0  0  0
    7.3287   -3.5331    0.2365 H   0  0  0  0  0  0  0  0  0  0  0  0
  1 15  1  0  0  0  0
  2 14  2  0  0  0  0
  3 27  2  0  0  0  0
  4  8  1  0  0  0  0
  4  9  1  0  0  0  0
  4 14  1  0  0  0  0
  5 14  1  0  0  0  0
  5 17  1  0  0  0  0
  5 38  1  0  0  0  0
  6  7  1  0  0  0  0
  6 19  2  0  0  0  0
  7 27  1  0  0  0  0
  7 45  1  0  0  0  0
  8 10  1  0  0  0  0
  8 31  1  0  0  0  0
  8 32  1  0  0  0  0
  9 11  1  0  0  0  0
  9 33  1  0  0  0  0
  9 34  1  0  0  0  0
 10 11  2  0  0  0  0
 10 12  1  0  0  0  0
 11 13  1  0  0  0  0
 12 15  2  0  0  0  0
 12 35  1  0  0  0  0
 13 16  2  0  0  0  0
 13 36  1  0  0  0  0
 15 16  1  0  0  0  0
 16 37  1  0  0  0  0
 17 21  2  0  0  0  0
 17 22  1  0  0  0  0
 18 19  1  0  0  0  0
 18 23  2  0  0  0  0
 18 24  1  0  0  0  0
 19 20  1  0  0  0  0
 20 25  1  0  0  0  0
 20 26  2  0  0  0  0
 21 23  1  0  0  0  0
 21 39  1  0  0  0  0
 22 24  2  0  0  0  0
 22 40  1  0  0  0  0
 23 41  1  0  0  0  0
 24 42  1  0  0  0  0
 25 27  1  0  0  0  0
 25 28  2  0  0  0  0
 26 29  1  0  0  0  0
 26 43  1  0  0  0  0
 28 30  1  0  0  0  0
 28 44  1  0  0  0  0
 29 30  2  0  0  0  0
 29 46  1  0  0  0  0
 30 47  1  0  0  0  0
M  END
> <PUBCHEM_COMPOUND_CID>
57509995

> <PUBCHEM_CONFORMER_RMSD>
0.8

> <PUBCHEM_CONFORMER_DIVERSEORDER>
1
42
54
25
43
13
55
24
39
52
22
28
10
48
34
53
20
17
12
41
46
26
33
50
3
30
49
45
21
40
8
37
31
23
38
47
14
18
51
44
32
6
35
27
2
36
7
29
15
11
19
9
16
4
5

> <PUBCHEM_MMFF94_PARTIAL_CHARGES>
43
1 -0.19
10 -0.14
11 -0.14
12 -0.15
13 -0.15
14 0.69
15 0.19
16 -0.15
17 0.12
18 0.09
19 0.28
2 -0.57
20 0.09
21 -0.15
22 -0.15
23 -0.15
24 -0.15
25 0.09
26 -0.15
27 0.54
28 -0.15
29 -0.15
3 -0.57
30 -0.15
35 0.15
36 0.15
37 0.15
38 0.37
39 0.15
4 -0.66
40 0.15
41 0.15
42 0.15
43 0.15
44 0.15
45 0.37
46 0.15
47 0.15
5 -0.55
6 -0.51
7 -0.37
8 0.44
9 0.44

> <PUBCHEM_EFFECTIVE_ROTOR_COUNT>
4.6

> <PUBCHEM_PHARMACOPHORE_FEATURES>
10
1 2 acceptor
1 3 acceptor
1 5 donor
1 6 acceptor
1 7 donor
5 4 8 9 10 11 rings
6 10 11 12 13 15 16 rings
6 17 18 21 22 23 24 rings
6 20 25 26 28 29 30 rings
6 6 7 19 20 25 27 rings

> <PUBCHEM_HEAVY_ATOM_COUNT>
30

> <PUBCHEM_ATOM_DEF_STEREO_COUNT>
0

> <PUBCHEM_ATOM_UDEF_STEREO_COUNT>
0

> <PUBCHEM_BOND_DEF_STEREO_COUNT>
0

> <PUBCHEM_BOND_UDEF_STEREO_COUNT>
0

> <PUBCHEM_ISOTOPIC_ATOM_COUNT>
0

> <PUBCHEM_COMPONENT_COUNT>
1

> <PUBCHEM_CACTVS_TAUTO_COUNT>
6

> <PUBCHEM_CONFORMER_ID>
036D886B00000001

> <PUBCHEM_MMFF94_ENERGY>
102.281

> <PUBCHEM_FEATURE_SELFOVERLAP>
50.855

> <PUBCHEM_SHAPE_FINGERPRINT>
10 15 13614515251461508631
10066227 49 18335700499154933931
10162869 55 18341606066591597844
10299344 5 17988924479103615807
106641 1 16630517437158171594
10951579 204 16733826346453695294
11315181 36 13758362185588277251
11719270 70 16773800276960550734
12082328 90 18408603648511191205
12089408 11 17775286067350251213
12236239 1 17917994958547807152
13533116 47 18342737399769090090
13560911 43 17274825770434962697
13617811 41 15574716872432225734
13685833 64 18260551099841210538
13914758 101 18336829693628330913
14068700 675 17060340738675577001
14118638 360 18409452453923187656
14251764 18 17846778511710005839
14251764 46 16877660179875239969
15119646 104 18131352977413866903
15131766 46 17983288524071273916
15183329 4 18412541007443743091
15198563 99 17604143710421457725
15328684 2 17273986752436717923
15419008 47 17531238474612712989
15419008 91 17313653949548921445
15461852 350 14562537293514660083
15510794 2 17749110001853124355
1577012 14 17989496194784861601
15840311 113 17560799979482884232
15849732 13 17748826332469930671
16120349 18 18410009970494968676
16989713 51 15141545648587776809
19301679 30 17559682729080564486
19315958 150 18260833730575522034
20157964 124 18409168827299308132
20165401 70 18200592493523540302
2026 5 18190738627022944522
20771845 140 16845286095726618558
20771845 171 17489321793454184180
21344244 78 18059565847063864160
22224240 67 12103843458566864357
22956985 138 16627452952249235126
23081809 10 18059862748502817881
23522609 53 17773622531368854865
23559900 14 18335420230963443321
23569943 247 17316192537345640650
23576562 1 14057872476445072255
249057 3 16588027939778666967
3383291 50 16950570995426764393
34797466 226 17676489466768305156
3633792 109 18261672584621770057
4073 2 18189339129377651578
4098825 35 18337670811470652601
4325135 7 16917353649461012677
44880568 143 17313383387978589085
5219985 9 17561081410845063049
5283156 175 18130788945444749777
5758199 1 13542465358684824261
59682541 35 14979949285495796579
59755656 215 16950562155782883427

> <PUBCHEM_SHAPE_MULTIPOLES>
578.45
29.41
1.73
1.29
31.57
0.95
-0.06
6.02
-0.96
-5.95
0.01
2.21
-0.09
-0.54

> <PUBCHEM_SHAPE_SELFOVERLAP>
1296.749

> <PUBCHEM_SHAPE_VOLUME>
306.3

> <PUBCHEM_COORDINATE_TYPE>
2
5
10

$$$$
57510012
  -OEChem-05102415043D

 62 67  0     1  0  0  0  0  0999 V2000
   10.4365    2.2476   -1.2988 F   0  0  0  0  0  0  0  0  0  0  0  0
    0.2869    0.6164   -1.6779 O   0  0  0  0  0  0  0  0  0  0  0  0
   -9.8764    1.6818    0.2877 O   0  0  0  0  0  0  0  0  0  0  0  0
    8.6767   -0.1235    0.2074 N   0  0  2  0  0  0  0  0  0  0  0  0
    1.8676   -0.2509   -0.2564 N   0  0  0  0  0  0  0  0  0  0  0  0
   -0.3726   -0.1758    0.4165 N   0  0  0  0  0  0  0  0  0  0  0  0
   -6.3757    1.9185    0.7993 N   0  0  0  0  0  0  0  0  0  0  0  0
   -7.6977    2.2008    0.7776 N   0  0  0  0  0  0  0  0  0  0  0  0
    8.5329    1.1822   -0.4434 C   0  0  0  0  0  0  0  0  0  0  0  0
   10.1065   -0.4294    0.1931 C   0  0  0  0  0  0  0  0  0  0  0  0
    9.8316    1.9145   -0.1259 C   0  0  1  0  0  0  0  0  0  0  0  0
   10.7042    0.9055    0.6009 C   0  0  0  0  0  0  0  0  0  0  0  0
    7.8755   -1.1581   -0.4278 C   0  0  0  0  0  0  0  0  0  0  0  0
    6.4437   -1.1033   -0.0103 C   0  0  0  0  0  0  0  0  0  0  0  0
    4.1708   -0.5373   -0.4612 C   0  0  0  0  0  0  0  0  0  0  0  0
    3.7994   -1.0193    0.7996 C   0  0  0  0  0  0  0  0  0  0  0  0
    2.9763   -0.0269   -1.1943 C   0  0  0  0  0  0  0  0  0  0  0  0
    2.3286   -0.8662    1.0019 C   0  0  0  0  0  0  0  0  0  0  0  0
    5.4888   -0.5725   -0.8806 C   0  0  0  0  0  0  0  0  0  0  0  0
    6.0710   -1.5869    1.2546 C   0  0  0  0  0  0  0  0  0  0  0  0
    4.7377   -1.5472    1.6687 C   0  0  0  0  0  0  0  0  0  0  0  0
    0.5535    0.1053   -0.5886 C   0  0  0  0  0  0  0  0  0  0  0  0
   -1.7697    0.0579    0.4014 C   0  0  0  0  0  0  0  0  0  0  0  0
   -2.3686    0.6339   -0.7191 C   0  0  0  0  0  0  0  0  0  0  0  0
   -2.5463   -0.2870    1.5075 C   0  0  0  0  0  0  0  0  0  0  0  0
   -4.5207    0.5201    0.3729 C   0  0  0  0  0  0  0  0  0  0  0  0
   -3.7440    0.8650   -0.7333 C   0  0  0  0  0  0  0  0  0  0  0  0
   -3.9218   -0.0557    1.4933 C   0  0  0  0  0  0  0  0  0  0  0  0
   -5.9765    0.7658    0.3568 C   0  0  0  0  0  0  0  0  0  0  0  0
   -6.9018   -0.2726   -0.1476 C   0  0  0  0  0  0  0  0  0  0  0  0
   -8.2571    0.0482   -0.1768 C   0  0  0  0  0  0  0  0  0  0  0  0
   -6.4822   -1.5402   -0.5643 C   0  0  0  0  0  0  0  0  0  0  0  0
   -8.6897    1.3689    0.3070 C   0  0  0  0  0  0  0  0  0  0  0  0
   -9.1961   -0.8781   -0.6417 C   0  0  0  0  0  0  0  0  0  0  0  0
   -7.4190   -2.4663   -1.0281 C   0  0  0  0  0  0  0  0  0  0  0  0
   -8.7722   -2.1351   -1.0703 C   0  0  0  0  0  0  0  0  0  0  0  0
    7.6730    1.7181   -0.0285 H   0  0  0  0  0  0  0  0  0  0  0  0
    8.4075    1.1077   -1.5304 H   0  0  0  0  0  0  0  0  0  0  0  0
   10.4536   -0.7154   -0.8079 H   0  0  0  0  0  0  0  0  0  0  0  0
   10.3685   -1.2206    0.9024 H   0  0  0  0  0  0  0  0  0  0  0  0
    9.6833    2.8292    0.4548 H   0  0  0  0  0  0  0  0  0  0  0  0
   11.7589    0.9847    0.3225 H   0  0  0  0  0  0  0  0  0  0  0  0
   10.6112    1.0406    1.6854 H   0  0  0  0  0  0  0  0  0  0  0  0
    8.2525   -2.1485   -0.1340 H   0  0  0  0  0  0  0  0  0  0  0  0
    7.9725   -1.1387   -1.5220 H   0  0  0  0  0  0  0  0  0  0  0  0
    3.0481    1.0437   -1.4086 H   0  0  0  0  0  0  0  0  0  0  0  0
    2.7823   -0.5891   -2.1127 H   0  0  0  0  0  0  0  0  0  0  0  0
    1.8317   -1.8324    1.1298 H   0  0  0  0  0  0  0  0  0  0  0  0
    2.0993   -0.1930    1.8333 H   0  0  0  0  0  0  0  0  0  0  0  0
    5.7651   -0.1948   -1.8598 H   0  0  0  0  0  0  0  0  0  0  0  0
    6.8197   -1.9989    1.9272 H   0  0  0  0  0  0  0  0  0  0  0  0
    4.4516   -1.9211    2.6457 H   0  0  0  0  0  0  0  0  0  0  0  0
   -0.0278   -0.5981    1.2729 H   0  0  0  0  0  0  0  0  0  0  0  0
   -1.8401    0.9287   -1.6140 H   0  0  0  0  0  0  0  0  0  0  0  0
   -2.0923   -0.7363    2.3870 H   0  0  0  0  0  0  0  0  0  0  0  0
   -4.2018    1.3143   -1.6110 H   0  0  0  0  0  0  0  0  0  0  0  0
   -4.5176   -0.3282    2.3607 H   0  0  0  0  0  0  0  0  0  0  0  0
   -5.4366   -1.8320   -0.5458 H   0  0  0  0  0  0  0  0  0  0  0  0
  -10.2562   -0.6422   -0.6725 H   0  0  0  0  0  0  0  0  0  0  0  0
   -7.9338    3.1216    1.1336 H   0  0  0  0  0  0  0  0  0  0  0  0
   -7.0915   -3.4484   -1.3572 H   0  0  0  0  0  0  0  0  0  0  0  0
   -9.4971   -2.8587   -1.4314 H   0  0  0  0  0  0  0  0  0  0  0  0
  1 11  1  0  0  0  0
  2 22  2  0  0  0  0
  3 33  2  0  0  0  0
  4  9  1  0  0  0  0
  4 10  1  0  0  0  0
  4 13  1  0  0  0  0
  5 17  1  0  0  0  0
  5 18  1  0  0  0  0
  5 22  1  0  0  0  0
  6 22  1  0  0  0  0
  6 23  1  0  0  0  0
  6 53  1  0  0  0  0
  7  8  1  0  0  0  0
  7 29  2  0  0  0  0
  8 33  1  0  0  0  0
  8 60  1  0  0  0  0
  9 11  1  0  0  0  0
  9 37  1  0  0  0  0
  9 38  1  0  0  0  0
 10 12  1  0  0  0  0
 10 39  1  0  0  0  0
 10 40  1  0  0  0  0
 11 12  1  0  0  0  0
 11 41  1  0  0  0  0
 12 42  1  0  0  0  0
 12 43  1  0  0  0  0
 13 14  1  0  0  0  0
 13 44  1  0  0  0  0
 13 45  1  0  0  0  0
 14 19  2  0  0  0  0
 14 20  1  0  0  0  0
 15 16  2  0  0  0  0
 15 17  1  0  0  0  0
 15 19  1  0  0  0  0
 16 18  1  0  0  0  0
 16 21  1  0  0  0  0
 17 46  1  0  0  0  0
 17 47  1  0  0  0  0
 18 48  1  0  0  0  0
 18 49  1  0  0  0  0
 19 50  1  0  0  0  0
 20 21  2  0  0  0  0
 20 51  1  0  0  0  0
 21 52  1  0  0  0  0
 23 24  2  0  0  0  0
 23 25  1  0  0  0  0
 24 27  1  0  0  0  0
 24 54  1  0  0  0  0
 25 28  2  0  0  0  0
 25 55  1  0  0  0  0
 26 27  2  0  0  0  0
 26 28  1  0  0  0  0
 26 29  1  0  0  0  0
 27 56  1  0  0  0  0
 28 57  1  0  0  0  0
 29 30  1  0  0  0  0
 30 31  1  0  0  0  0
 30 32  2  0  0  0  0
 31 33  1  0  0  0  0
 31 34  2  0  0  0  0
 32 35  1  0  0  0  0
 32 58  1  0  0  0  0
 34 36  1  0  0  0  0
 34 59  1  0  0  0  0
 35 36  2  0  0  0  0
 35 61  1  0  0  0  0
 36 62  1  0  0  0  0
M  END
> <PUBCHEM_COMPOUND_CID>
57510012

> <PUBCHEM_CONFORMER_RMSD>
1.2

> <PUBCHEM_CONFORMER_DIVERSEORDER>
1
100
36
35
90
89
51
44
118
113
8
78
29
93
86
67
2
46
105
85
95
102
73
120
116
99
43
114
31
4
38
92
103
70
97
69
49
55
71
98
7
108
16
83
112
88
24
101
109
104
5
53
19
32
111
17
96
74
13
79
66
94
22
84
10
59
41
77
57
18
110
26
50
54
68
117
60
64
115
76
82
87
63
34
91
65
42
33
80
52
11
40
75
37
72
45
3
39
27
47
58
14
107
56
61
119
20
30
6
62
9
48
21
106
23
12
25
28
81
15

> <PUBCHEM_MMFF94_PARTIAL_CHARGES>
48
1 -0.34
10 0.27
11 0.34
13 0.41
14 -0.14
15 -0.14
16 -0.14
17 0.44
18 0.44
19 -0.15
2 -0.57
20 -0.15
21 -0.15
22 0.69
23 0.12
24 -0.15
25 -0.15
26 0.09
27 -0.15
28 -0.15
29 0.28
3 -0.57
30 0.09
31 0.09
32 -0.15
33 0.54
34 -0.15
35 -0.15
36 -0.15
4 -0.81
5 -0.66
50 0.15
51 0.15
52 0.15
53 0.37
54 0.15
55 0.15
56 0.15
57 0.15
58 0.15
59 0.15
6 -0.55
60 0.37
61 0.15
62 0.15
7 -0.51
8 -0.37
9 0.27

> <PUBCHEM_EFFECTIVE_ROTOR_COUNT>
7.6

> <PUBCHEM_PHARMACOPHORE_FEATURES>
12
1 2 acceptor
1 3 acceptor
1 4 cation
1 6 donor
1 7 acceptor
1 8 donor
5 4 9 10 11 12 rings
5 5 15 16 17 18 rings
6 14 15 16 19 20 21 rings
6 23 24 25 26 27 28 rings
6 30 31 32 34 35 36 rings
6 7 8 29 30 31 33 rings

> <PUBCHEM_HEAVY_ATOM_COUNT>
36

> <PUBCHEM_ATOM_DEF_STEREO_COUNT>
1

> <PUBCHEM_ATOM_UDEF_STEREO_COUNT>
0

> <PUBCHEM_BOND_DEF_STEREO_COUNT>
0

> <PUBCHEM_BOND_UDEF_STEREO_COUNT>
0

> <PUBCHEM_ISOTOPIC_ATOM_COUNT>
0

> <PUBCHEM_COMPONENT_COUNT>
1

> <PUBCHEM_CACTVS_TAUTO_COUNT>
6

> <PUBCHEM_CONFORMER_ID>
036D887C00000001

> <PUBCHEM_MMFF94_ENERGY>
117.6211

> <PUBCHEM_FEATURE_SELFOVERLAP>
61.006

> <PUBCHEM_SHAPE_FINGERPRINT>
10 15 16630521822103360047
10162869 55 17821445790024497078
10299344 5 18334294241394913531
10391435 84 16660650669613055962
11135926 11 16805323267873240011
11315181 36 18202849842655394099
12013929 94 18202562917091592567
12089408 11 18411981338903351810
12098696 120 15140678068681849538
12144603 126 18408882953775407254
12522641 33 18413108333816546966
12664476 115 18260544533364242412
12838862 33 16443059517520663282
13383668 251 18263632026159926692
13553643 46 16298387976640469796
13947947 19 17967817179965723247
14118638 360 16443338720143071824
14251764 46 18410575071778183522
15061470 23 18342454829391524744
15065858 18 18272369750481233806
15145343 6 17418091039890221027
15183329 4 16950558875240271963
15392192 104 17989486321330638886
15461852 350 18273215300676985947
15510794 2 17703793591660298950
15530121 191 17489861644599273560
15840311 113 18334861620097648140
16120349 18 18186802509303513212
16728433 110 17821729437790513821
17686467 74 18273210924073871081
19315958 150 18334581209767113146
19611394 137 16773790446566860995
20105231 36 14908184157693305300
21095123 145 17346595296779304887
21362267 2 17202746177976238184
21362267 313 18265049129465626514
21792934 111 16443345395492824492
232437 2 18411699868743951726
24771293 8 18333453127241021261
249057 3 16225774020638223919
3092352 35 18131350805215560566
395649 100 18261111924213829131
44280117 145 18272650174024172943
4874694 18 16370724829320082154
5028188 123 18411978071171477351
54583773 228 18131071562946500048
57676310 188 18335416834283368971
6057620 51 18343302544356101330
6126387 218 18187365415521206357
67123 10 18343019995500143190
9663363 56 16443063890483088293
9937071 3 13984659244811304952

> <PUBCHEM_SHAPE_MULTIPOLES>
696.95
43.47
1.95
1.27
33.05
0.1
0.14
8.77
-3.83
-1.7
-0.13
0.32
-0.18
-3.4

> <PUBCHEM_SHAPE_SELFOVERLAP>
1547.777

> <PUBCHEM_SHAPE_VOLUME>
375

> <PUBCHEM_COORDINATE_TYPE>
2
5
10

$$$$
57510160
  -OEChem-05102415043D

 46 50  0     0  0  0  0  0  0999 V2000
   -2.4731    0.3716    1.9932 O   0  0  0  0  0  0  0  0  0  0  0  0
    7.7001    1.3055    0.0098 O   0  0  0  0  0  0  0  0  0  0  0  0
   -4.1449    0.0976    0.4438 N   0  0  0  0  0  0  0  0  0  0  0  0
   -7.0601   -0.3357   -1.6868 N   0  0  0  0  0  0  0  0  0  0  0  0
   -1.9202    0.2266   -0.2699 N   0  0  0  0  0  0  0  0  0  0  0  0
    4.2185    1.9252   -0.2513 N   0  0  0  0  0  0  0  0  0  0  0  0
    5.5586    2.0968   -0.2014 N   0  0  0  0  0  0  0  0  0  0  0  0
   -5.2151    0.0923    1.4525 C   0  0  0  0  0  0  0  0  0  0  0  0
   -4.6775   -0.0640   -0.9217 C   0  0  0  0  0  0  0  0  0  0  0  0
   -6.4542   -0.0837    0.6486 C   0  0  0  0  0  0  0  0  0  0  0  0
   -6.1568   -0.1739   -0.7072 C   0  0  0  0  0  0  0  0  0  0  0  0
   -2.8008    0.2433    0.8123 C   0  0  0  0  0  0  0  0  0  0  0  0
   -7.7697   -0.1626    1.0545 C   0  0  0  0  0  0  0  0  0  0  0  0
   -8.7442   -0.3304    0.0732 C   0  0  0  0  0  0  0  0  0  0  0  0
   -0.5091    0.3489   -0.2445 C   0  0  0  0  0  0  0  0  0  0  0  0
   -8.3446   -0.4102   -1.2617 C   0  0  0  0  0  0  0  0  0  0  0  0
    2.2695    0.5924   -0.1951 C   0  0  0  0  0  0  0  0  0  0  0  0
    3.7401    0.7219   -0.1678 C   0  0  0  0  0  0  0  0  0  0  0  0
    4.5919   -0.4818   -0.0479 C   0  0  0  0  0  0  0  0  0  0  0  0
    0.1556    0.5075    0.9716 C   0  0  0  0  0  0  0  0  0  0  0  0
    0.2154    0.3120   -1.4358 C   0  0  0  0  0  0  0  0  0  0  0  0
    5.9683   -0.2782    0.0196 C   0  0  0  0  0  0  0  0  0  0  0  0
    1.5448    0.6293    0.9962 C   0  0  0  0  0  0  0  0  0  0  0  0
    1.6047    0.4339   -1.4111 C   0  0  0  0  0  0  0  0  0  0  0  0
    4.0836   -1.7847   -0.0232 C   0  0  0  0  0  0  0  0  0  0  0  0
    6.4923    1.0950   -0.0530 C   0  0  0  0  0  0  0  0  0  0  0  0
    6.8419   -1.3642    0.1358 C   0  0  0  0  0  0  0  0  0  0  0  0
    4.9548   -2.8699    0.0921 C   0  0  0  0  0  0  0  0  0  0  0  0
    6.3303   -2.6604    0.1751 C   0  0  0  0  0  0  0  0  0  0  0  0
   -5.0460   -0.7391    2.1435 H   0  0  0  0  0  0  0  0  0  0  0  0
   -5.1997    1.0454    1.9896 H   0  0  0  0  0  0  0  0  0  0  0  0
   -4.2652   -0.9745   -1.3659 H   0  0  0  0  0  0  0  0  0  0  0  0
   -4.4201    0.8165   -1.5172 H   0  0  0  0  0  0  0  0  0  0  0  0
   -8.0426   -0.0966    2.1017 H   0  0  0  0  0  0  0  0  0  0  0  0
   -2.3144    0.1150   -1.1988 H   0  0  0  0  0  0  0  0  0  0  0  0
   -9.7933   -0.3980    0.3406 H   0  0  0  0  0  0  0  0  0  0  0  0
   -9.0810   -0.5411   -2.0486 H   0  0  0  0  0  0  0  0  0  0  0  0
   -0.3299    0.5458    1.9359 H   0  0  0  0  0  0  0  0  0  0  0  0
   -0.2901    0.1891   -2.3902 H   0  0  0  0  0  0  0  0  0  0  0  0
    2.0541    0.7525    1.9487 H   0  0  0  0  0  0  0  0  0  0  0  0
    2.1596    0.4040   -2.3453 H   0  0  0  0  0  0  0  0  0  0  0  0
    3.0183   -1.9850   -0.0850 H   0  0  0  0  0  0  0  0  0  0  0  0
    7.9174   -1.2217    0.1914 H   0  0  0  0  0  0  0  0  0  0  0  0
    5.8583    3.0645   -0.2670 H   0  0  0  0  0  0  0  0  0  0  0  0
    4.5588   -3.8812    0.1172 H   0  0  0  0  0  0  0  0  0  0  0  0
    7.0039   -3.5076    0.2643 H   0  0  0  0  0  0  0  0  0  0  0  0
  1 12  2  0  0  0  0
  2 26  2  0  0  0  0
  3  8  1  0  0  0  0
  3  9  1  0  0  0  0
  3 12  1  0  0  0  0
  4 11  1  0  0  0  0
  4 16  2  0  0  0  0
  5 12  1  0  0  0  0
  5 15  1  0  0  0  0
  5 35  1  0  0  0  0
  6  7  1  0  0  0  0
  6 18  2  0  0  0  0
  7 26  1  0  0  0  0
  7 44  1  0  0  0  0
  8 10  1  0  0  0  0
  8 30  1  0  0  0  0
  8 31  1  0  0  0  0
  9 11  1  0  0  0  0
  9 32  1  0  0  0  0
  9 33  1  0  0  0  0
 10 11  2  0  0  0  0
 10 13  1  0  0  0  0
 13 14  2  0  0  0  0
 13 34  1  0  0  0  0
 14 16  1  0  0  0  0
 14 36  1  0  0  0  0
 15 20  2  0  0  0  0
 15 21  1  0  0  0  0
 16 37  1  0  0  0  0
 17 18  1  0  0  0  0
 17 23  2  0  0  0  0
 17 24  1  0  0  0  0
 18 19  1  0  0  0  0
 19 22  1  0  0  0  0
 19 25  2  0  0  0  0
 20 23  1  0  0  0  0
 20 38  1  0  0  0  0
 21 24  2  0  0  0  0
 21 39  1  0  0  0  0
 22 26  1  0  0  0  0
 22 27  2  0  0  0  0
 23 40  1  0  0  0  0
 24 41  1  0  0  0  0
 25 28  1  0  0  0  0
 25 42  1  0  0  0  0
 27 29  1  0  0  0  0
 27 43  1  0  0  0  0
 28 29  2  0  0  0  0
 28 45  1  0  0  0  0
 29 46  1  0  0  0  0
M  END
> <PUBCHEM_COMPOUND_CID>
57510160

> <PUBCHEM_CONFORMER_RMSD>
0.8

> <PUBCHEM_CONFORMER_DIVERSEORDER>
1
31
13
42
41
49
46
33
45
48
24
11
43
27
5
26
36
19
39
21
47
20
8
35
37
10
32
44
15
28
38
34
29
2
40
25
9
22
23
16
7
30
6
14
3
12
4
17
18

> <PUBCHEM_MMFF94_PARTIAL_CHARGES>
42
1 -0.57
10 -0.14
11 0.17
12 0.69
13 -0.15
14 -0.15
15 0.12
16 0.16
17 0.09
18 0.28
19 0.09
2 -0.57
20 -0.15
21 -0.15
22 0.09
23 -0.15
24 -0.15
25 -0.15
26 0.54
27 -0.15
28 -0.15
29 -0.15
3 -0.66
34 0.15
35 0.37
36 0.15
37 0.15
38 0.15
39 0.15
4 -0.62
40 0.15
41 0.15
42 0.15
43 0.15
44 0.37
45 0.15
46 0.15
5 -0.55
6 -0.51
7 -0.37
8 0.44
9 0.44

> <PUBCHEM_EFFECTIVE_ROTOR_COUNT>
4.6

> <PUBCHEM_PHARMACOPHORE_FEATURES>
11
1 1 acceptor
1 2 acceptor
1 4 acceptor
1 5 donor
1 6 acceptor
1 7 donor
5 3 8 9 10 11 rings
6 15 17 20 21 23 24 rings
6 19 22 25 27 28 29 rings
6 4 10 11 13 14 16 rings
6 6 7 18 19 22 26 rings

> <PUBCHEM_HEAVY_ATOM_COUNT>
29

> <PUBCHEM_ATOM_DEF_STEREO_COUNT>
0

> <PUBCHEM_ATOM_UDEF_STEREO_COUNT>
0

> <PUBCHEM_BOND_DEF_STEREO_COUNT>
0

> <PUBCHEM_BOND_UDEF_STEREO_COUNT>
0

> <PUBCHEM_ISOTOPIC_ATOM_COUNT>
0

> <PUBCHEM_COMPONENT_COUNT>
1

> <PUBCHEM_CACTVS_TAUTO_COUNT>
6

> <PUBCHEM_CONFORMER_ID>
036D891000000001

> <PUBCHEM_MMFF94_ENERGY>
103.0536

> <PUBCHEM_FEATURE_SELFOVERLAP>
55.943

> <PUBCHEM_SHAPE_FINGERPRINT>
10 15 15195558013685917042
10066227 49 18335701603093404331
10162869 55 18341324591430270860
10299344 5 18060700598254529831
106641 1 16702294655625521618
10951579 204 16733826346364037519
11315181 36 17846781837064316625
11719270 70 16845577495660022311
12082328 90 18408603652890470093
12236239 1 17917714582940305984
12741549 16 17676759934614969740
13533116 47 18342457024161601914
13560911 43 17346884464058371457
13617811 41 15502377803359538862
13668630 136 17894353281065689635
13685833 64 18260269628948483626
13914758 101 18336548218778214337
14068700 675 17132116862147806121
14118638 360 18409170978840981928
14170010 4 18186804690640315364
14251764 18 17846498136461200751
14251764 46 14634867561271072041
15119646 104 18130508552599779343
15183329 4 18413103961860917259
15198563 99 17531804641543917221
15328684 2 17345762871577024035
15419008 47 17530958103505848965
15419008 91 17313653954023197813
15461852 350 14634874176517740499
15510794 2 17676207982921974731
1577012 14 17988651770012991737
15840311 113 17489304231586423376
15849732 13 17749107811862927927
16120349 18 18410290350049323036
16989713 51 15069206583931376545
19315958 150 18260553355036586154
20157964 124 18408887352222396644
20165401 70 18200592493423319990
21315759 40 18131351925563331221
21344244 78 18059002897026079296
22224240 67 12319734765777764541
22956985 138 16627171477156499406
23081809 10 18131638872149100833
23522609 53 17773342151798695777
23559900 14 18335701706351571673
23569943 247 17315911066510910018
23576562 1 13985533411883649903
249057 25 18200889430081589265
3383291 50 16950290620046058145
34797466 226 17313108570417094028
3633792 109 18261391114129917777
4073 2 18188214324397364650
4098825 35 18337670811549786937
4325135 7 16988566818621549701
44880568 143 17312820442504712405
5219985 9 17632577154509775745
5283156 175 18202565064643110633
59682541 35 14979948186015849899
59755656 215 16877942715671949851
6441014 3 17181647374193940178

> <PUBCHEM_SHAPE_MULTIPOLES>
560.16
27.48
1.76
1.28
30.6
0.94
0
5.6
-1.53
-5.78
0.01
2.26
-0.08
-0.62

> <PUBCHEM_SHAPE_SELFOVERLAP>
1254.648

> <PUBCHEM_SHAPE_VOLUME>
293.5

> <PUBCHEM_COORDINATE_TYPE>
2
5
10

$$$$
57510004
  -OEChem-05102415043D

 50 54  0     0  0  0  0  0  0999 V2000
    1.6479    1.2529   -0.9529 F   0  0  0  0  0  0  0  0  0  0  0  0
    2.2195    3.1484   -0.0539 F   0  0  0  0  0  0  0  0  0  0  0  0
    1.8146    1.4209    1.2029 F   0  0  0  0  0  0  0  0  0  0  0  0
   -2.7582   -0.6366   -1.9762 O   0  0  0  0  0  0  0  0  0  0  0  0
    7.3957   -1.7537    0.0128 O   0  0  0  0  0  0  0  0  0  0  0  0
   -4.4184   -0.2735   -0.4323 N   0  0  0  0  0  0  0  0  0  0  0  0
   -2.1949   -0.4336    0.2800 N   0  0  0  0  0  0  0  0  0  0  0  0
    3.9009   -2.2806    0.3002 N   0  0  0  0  0  0  0  0  0  0  0  0
    5.2364   -2.4861    0.2523 N   0  0  0  0  0  0  0  0  0  0  0  0
   -5.4894   -0.2739   -1.4383 C   0  0  0  0  0  0  0  0  0  0  0  0
   -4.9434   -0.0564    0.9284 C   0  0  0  0  0  0  0  0  0  0  0  0
   -6.7279   -0.0446   -0.6394 C   0  0  0  0  0  0  0  0  0  0  0  0
   -6.4149    0.0806    0.7194 C   0  0  0  0  0  0  0  0  0  0  0  0
   -8.0350    0.0473   -1.0838 C   0  0  0  0  0  0  0  0  0  0  0  0
   -7.4021    0.3003    1.6637 C   0  0  0  0  0  0  0  0  0  0  0  0
   -3.0791   -0.4633   -0.7990 C   0  0  0  0  0  0  0  0  0  0  0  0
   -9.0388    0.2690   -0.1382 C   0  0  0  0  0  0  0  0  0  0  0  0
   -8.7248    0.3945    1.2251 C   0  0  0  0  0  0  0  0  0  0  0  0
    4.3317    0.1091    0.0196 C   0  0  0  0  0  0  0  0  0  0  0  0
    3.4515   -1.0693    0.1797 C   0  0  0  0  0  0  0  0  0  0  0  0
   -0.7871   -0.5909    0.2550 C   0  0  0  0  0  0  0  0  0  0  0  0
    1.9844   -0.9033    0.2066 C   0  0  0  0  0  0  0  0  0  0  0  0
    5.7026   -0.1297   -0.0444 C   0  0  0  0  0  0  0  0  0  0  0  0
    3.8548    1.4225   -0.0456 C   0  0  0  0  0  0  0  0  0  0  0  0
   -0.1305   -0.8042   -0.9570 C   0  0  0  0  0  0  0  0  0  0  0  0
   -0.0581   -0.5340    1.4429 C   0  0  0  0  0  0  0  0  0  0  0  0
    1.2553   -0.9603   -0.9812 C   0  0  0  0  0  0  0  0  0  0  0  0
    1.3277   -0.6903    1.4186 C   0  0  0  0  0  0  0  0  0  0  0  0
    6.6016    0.9307   -0.1975 C   0  0  0  0  0  0  0  0  0  0  0  0
    4.7516    2.4822   -0.1974 C   0  0  0  0  0  0  0  0  0  0  0  0
    6.1935   -1.5122    0.0708 C   0  0  0  0  0  0  0  0  0  0  0  0
    2.4118    1.8012    0.0363 C   0  0  0  0  0  0  0  0  0  0  0  0
    6.1213    2.2369   -0.2769 C   0  0  0  0  0  0  0  0  0  0  0  0
   -5.3031    0.5324   -2.1542 H   0  0  0  0  0  0  0  0  0  0  0  0
   -5.4976   -1.2429   -1.9465 H   0  0  0  0  0  0  0  0  0  0  0  0
   -4.6985   -0.9241    1.5481 H   0  0  0  0  0  0  0  0  0  0  0  0
   -4.5031    0.8570    1.3393 H   0  0  0  0  0  0  0  0  0  0  0  0
   -8.2793   -0.0491   -2.1360 H   0  0  0  0  0  0  0  0  0  0  0  0
   -7.1614    0.3976    2.7167 H   0  0  0  0  0  0  0  0  0  0  0  0
  -10.0743    0.3455   -0.4591 H   0  0  0  0  0  0  0  0  0  0  0  0
   -9.5205    0.5669    1.9449 H   0  0  0  0  0  0  0  0  0  0  0  0
   -2.5832   -0.2830    1.2058 H   0  0  0  0  0  0  0  0  0  0  0  0
   -0.6199   -0.8623   -1.9183 H   0  0  0  0  0  0  0  0  0  0  0  0
   -0.5579   -0.3734    2.3946 H   0  0  0  0  0  0  0  0  0  0  0  0
    1.7574   -1.1332   -1.9302 H   0  0  0  0  0  0  0  0  0  0  0  0
    1.8830   -0.6679    2.3538 H   0  0  0  0  0  0  0  0  0  0  0  0
    7.6733    0.7605   -0.2510 H   0  0  0  0  0  0  0  0  0  0  0  0
    4.4157    3.5139   -0.2562 H   0  0  0  0  0  0  0  0  0  0  0  0
    6.8154    3.0640   -0.3945 H   0  0  0  0  0  0  0  0  0  0  0  0
    5.5128   -3.4581    0.3478 H   0  0  0  0  0  0  0  0  0  0  0  0
  1 32  1  0  0  0  0
  2 32  1  0  0  0  0
  3 32  1  0  0  0  0
  4 16  2  0  0  0  0
  5 31  2  0  0  0  0
  6 10  1  0  0  0  0
  6 11  1  0  0  0  0
  6 16  1  0  0  0  0
  7 16  1  0  0  0  0
  7 21  1  0  0  0  0
  7 42  1  0  0  0  0
  8  9  1  0  0  0  0
  8 20  2  0  0  0  0
  9 31  1  0  0  0  0
  9 50  1  0  0  0  0
 10 12  1  0  0  0  0
 10 34  1  0  0  0  0
 10 35  1  0  0  0  0
 11 13  1  0  0  0  0
 11 36  1  0  0  0  0
 11 37  1  0  0  0  0
 12 13  1  0  0  0  0
 12 14  2  0  0  0  0
 13 15  2  0  0  0  0
 14 17  1  0  0  0  0
 14 38  1  0  0  0  0
 15 18  1  0  0  0  0
 15 39  1  0  0  0  0
 17 18  2  0  0  0  0
 17 40  1  0  0  0  0
 18 41  1  0  0  0  0
 19 20  1  0  0  0  0
 19 23  2  0  0  0  0
 19 24  1  0  0  0  0
 20 22  1  0  0  0  0
 21 25  2  0  0  0  0
 21 26  1  0  0  0  0
 22 27  2  0  0  0  0
 22 28  1  0  0  0  0
 23 29  1  0  0  0  0
 23 31  1  0  0  0  0
 24 30  2  0  0  0  0
 24 32  1  0  0  0  0
 25 27  1  0  0  0  0
 25 43  1  0  0  0  0
 26 28  2  0  0  0  0
 26 44  1  0  0  0  0
 27 45  1  0  0  0  0
 28 46  1  0  0  0  0
 29 33  2  0  0  0  0
 29 47  1  0  0  0  0
 30 33  1  0  0  0  0
 30 48  1  0  0  0  0
 33 49  1  0  0  0  0
M  END
> <PUBCHEM_COMPOUND_CID>
57510004

> <PUBCHEM_CONFORMER_RMSD>
0.8

> <PUBCHEM_CONFORMER_DIVERSEORDER>
1
10
21
13
18
5
4
14
11
8
12
15
7
6
3
19
20
2
16
17
9

> <PUBCHEM_MMFF94_PARTIAL_CHARGES>
46
1 -0.34
10 0.44
11 0.44
12 -0.14
13 -0.14
14 -0.15
15 -0.15
16 0.69
17 -0.15
18 -0.15
19 0.09
2 -0.34
20 0.28
21 0.12
22 0.09
23 0.09
24 -0.14
25 -0.15
26 -0.15
27 -0.15
28 -0.15
29 -0.15
3 -0.34
30 -0.15
31 0.54
32 1.16
33 -0.15
38 0.15
39 0.15
4 -0.57
40 0.15
41 0.15
42 0.37
43 0.15
44 0.15
45 0.15
46 0.15
47 0.15
48 0.15
49 0.15
5 -0.57
50 0.37
6 -0.66
7 -0.55
8 -0.51
9 -0.37

> <PUBCHEM_EFFECTIVE_ROTOR_COUNT>
5.6

> <PUBCHEM_PHARMACOPHORE_FEATURES>
10
1 4 acceptor
1 5 acceptor
1 7 donor
1 8 acceptor
1 9 donor
5 6 10 11 12 13 rings
6 12 13 14 15 17 18 rings
6 19 23 24 29 30 33 rings
6 21 22 25 26 27 28 rings
6 8 9 19 20 23 31 rings

> <PUBCHEM_HEAVY_ATOM_COUNT>
33

> <PUBCHEM_ATOM_DEF_STEREO_COUNT>
0

> <PUBCHEM_ATOM_UDEF_STEREO_COUNT>
0

> <PUBCHEM_BOND_DEF_STEREO_COUNT>
0

> <PUBCHEM_BOND_UDEF_STEREO_COUNT>
0

> <PUBCHEM_ISOTOPIC_ATOM_COUNT>
0

> <PUBCHEM_COMPONENT_COUNT>
1

> <PUBCHEM_CACTVS_TAUTO_COUNT>
8

> <PUBCHEM_CONFORMER_ID>
036D887400000001

> <PUBCHEM_MMFF94_ENERGY>
136.2309

> <PUBCHEM_FEATURE_SELFOVERLAP>
50.855

> <PUBCHEM_SHAPE_FINGERPRINT>
10 15 16298387997809090229
10299344 5 18060136540373762351
10411042 1 18048876296261465554
106641 1 14490472019162778444
10675989 125 18268428126399172696
11456790 92 18187638086115758176
11646440 116 17530966895197979469
11719270 70 16845575296626464143
12089408 11 17847061087121432231
12107698 1 18411981330519229873
12236239 1 17917710223327090862
12730499 353 17821725022917606898
12741549 16 17530959169379989356
13617811 41 15985109617184398736
13627175 23 18273217495800822099
14068700 675 16917069967145582017
14170010 4 18334012800503491692
14251764 18 17846779607596585675
14294032 229 16701199481835613825
14747281 78 17896617231489873764
14849402 71 18338519741383972469
14933364 13 18333449850755636311
15183329 4 17346885567806982305
15276724 80 18342737408175057733
15301273 46 17167860859795038015
15419008 47 17530679901515510485
15483637 11 18119525436171254380
15510794 2 18040437703447230155
1577012 14 18060135475031800293
15840311 113 18411421730603305180
16120349 18 18411134748971793557
18335252 114 18411692206052829957
18608769 82 16950285122345662707
19309040 13 17828777462070254876
20105231 36 17749394745806810787
20157964 124 18409730664581997070
21033648 29 17677891417129243272
21267235 1 18338800018934745494
21315759 40 17847057788407324359
21521721 280 18333733524218032842
221357 26 18334007277033345252
22224240 67 17676205788879664019
23522609 53 17845672420693967129
23576562 1 16915930967514606305
249057 3 18410856564030332614
255183 451 17843131303663041222
2747138 104 16877947135757832317
3004659 81 16415479376555346953
3092352 35 18060137644397103391
3178227 256 18261110751254863842
335352 9 18410017624896706646
397830 11 17895767321664581555
4073 2 18114747148000051219
4093350 32 18412545405305683294
4098825 35 18410008802400897225
437795 51 17894911819296595683
44426699 60 15502376695933340178
45377200 153 14562828637329341545
474113 269 13973423301079799524
5104073 3 16443890671355369089
58902169 19 18130500920653664197
6086070 43 17417531448844064731
70251023 43 18194967336601851794
9658208 31 17095529534137397738
9663363 56 18408041794286380170

> <PUBCHEM_SHAPE_MULTIPOLES>
625.64
25.7
2.07
1.28
42.63
0.81
-0.02
2.04
-1.21
-5.79
-0.01
2.17
-0.1
-0.83

> <PUBCHEM_SHAPE_SELFOVERLAP>
1418.345

> <PUBCHEM_SHAPE_VOLUME>
324.5

> <PUBCHEM_COORDINATE_TYPE>
2
5
10

$$$$
57510014
  -OEChem-05102415043D

 59 64  0     0  0  0  0  0  0999 V2000
   -0.8883   -0.5680   -1.7364 O   0  0  0  0  0  0  0  0  0  0  0  0
    9.3059   -1.5300    0.1195 O   0  0  0  0  0  0  0  0  0  0  0  0
   -9.2973   -0.2816    0.2094 N   0  0  0  0  0  0  0  0  0  0  0  0
   -2.4911    0.1008   -0.2347 N   0  0  0  0  0  0  0  0  0  0  0  0
   -0.2483    0.0228    0.4293 N   0  0  0  0  0  0  0  0  0  0  0  0
    5.8146   -1.9214    0.6002 N   0  0  0  0  0  0  0  0  0  0  0  0
    7.1443   -2.1609    0.5508 N   0  0  0  0  0  0  0  0  0  0  0  0
   -9.0577   -1.4750   -0.6383 C   0  0  0  0  0  0  0  0  0  0  0  0
  -10.6756   -0.2207   -0.3357 C   0  0  0  0  0  0  0  0  0  0  0  0
  -10.5730   -1.7219   -0.6403 C   0  0  0  0  0  0  0  0  0  0  0  0
   -8.5235    0.8430   -0.3179 C   0  0  0  0  0  0  0  0  0  0  0  0
   -7.0898    0.7877    0.0932 C   0  0  0  0  0  0  0  0  0  0  0  0
   -4.8022    0.3388   -0.4113 C   0  0  0  0  0  0  0  0  0  0  0  0
   -4.4427    0.6988    0.8930 C   0  0  0  0  0  0  0  0  0  0  0  0
   -3.5947   -0.0578   -1.1918 C   0  0  0  0  0  0  0  0  0  0  0  0
   -2.9676    0.5690    1.0800 C   0  0  0  0  0  0  0  0  0  0  0  0
   -6.1215    0.3781   -0.8262 C   0  0  0  0  0  0  0  0  0  0  0  0
   -6.7290    1.1490    1.4017 C   0  0  0  0  0  0  0  0  0  0  0  0
   -5.3944    1.1062    1.8109 C   0  0  0  0  0  0  0  0  0  0  0  0
   -1.1677   -0.1802   -0.6005 C   0  0  0  0  0  0  0  0  0  0  0  0
    1.1550   -0.1666    0.3915 C   0  0  0  0  0  0  0  0  0  0  0  0
    1.7684   -0.6060   -0.7818 C   0  0  0  0  0  0  0  0  0  0  0  0
    1.9233    0.0851    1.5282 C   0  0  0  0  0  0  0  0  0  0  0  0
    3.9184   -0.5420    0.3185 C   0  0  0  0  0  0  0  0  0  0  0  0
    5.3808   -0.7415    0.2787 C   0  0  0  0  0  0  0  0  0  0  0  0
    3.1500   -0.7937   -0.8182 C   0  0  0  0  0  0  0  0  0  0  0  0
    3.3050   -0.1029    1.4916 C   0  0  0  0  0  0  0  0  0  0  0  0
    6.2741    0.3703   -0.1149 C   0  0  0  0  0  0  0  0  0  0  0  0
    7.6381    0.0944   -0.1756 C   0  0  0  0  0  0  0  0  0  0  0  0
    5.8163    1.6612   -0.3989 C   0  0  0  0  0  0  0  0  0  0  0  0
    8.1104   -1.2559    0.1697 C   0  0  0  0  0  0  0  0  0  0  0  0
    8.5485    1.0911   -0.5415 C   0  0  0  0  0  0  0  0  0  0  0  0
    6.7245    2.6573   -0.7636 C   0  0  0  0  0  0  0  0  0  0  0  0
    8.0868    2.3724   -0.8383 C   0  0  0  0  0  0  0  0  0  0  0  0
   -8.4635   -2.2606   -0.1614 H   0  0  0  0  0  0  0  0  0  0  0  0
   -8.6553   -1.2963   -1.6440 H   0  0  0  0  0  0  0  0  0  0  0  0
  -10.8184    0.3959   -1.2328 H   0  0  0  0  0  0  0  0  0  0  0  0
  -11.4419    0.0508    0.3967 H   0  0  0  0  0  0  0  0  0  0  0  0
  -11.0090   -2.0561   -1.5845 H   0  0  0  0  0  0  0  0  0  0  0  0
  -10.9218   -2.3681    0.1734 H   0  0  0  0  0  0  0  0  0  0  0  0
   -8.9493    1.7772    0.0748 H   0  0  0  0  0  0  0  0  0  0  0  0
   -8.5968    0.9417   -1.4111 H   0  0  0  0  0  0  0  0  0  0  0  0
   -3.4192    0.6017   -2.0472 H   0  0  0  0  0  0  0  0  0  0  0  0
   -3.6353   -1.1022   -1.5156 H   0  0  0  0  0  0  0  0  0  0  0  0
   -2.4991    1.5311    1.3075 H   0  0  0  0  0  0  0  0  0  0  0  0
   -2.7169   -0.1793    1.8376 H   0  0  0  0  0  0  0  0  0  0  0  0
   -6.3869    0.0967   -1.8401 H   0  0  0  0  0  0  0  0  0  0  0  0
   -7.4882    1.4674    2.1122 H   0  0  0  0  0  0  0  0  0  0  0  0
   -5.1175    1.3855    2.8216 H   0  0  0  0  0  0  0  0  0  0  0  0
   -0.6037    0.3441    1.3243 H   0  0  0  0  0  0  0  0  0  0  0  0
    1.2471   -0.8222   -1.7029 H   0  0  0  0  0  0  0  0  0  0  0  0
    1.4580    0.4276    2.4489 H   0  0  0  0  0  0  0  0  0  0  0  0
    3.6191   -1.1363   -1.7371 H   0  0  0  0  0  0  0  0  0  0  0  0
    3.8942    0.0960    2.3831 H   0  0  0  0  0  0  0  0  0  0  0  0
    4.7626    1.9185   -0.3514 H   0  0  0  0  0  0  0  0  0  0  0  0
    9.6150    0.8909   -0.5954 H   0  0  0  0  0  0  0  0  0  0  0  0
    7.4081   -3.1062    0.8101 H   0  0  0  0  0  0  0  0  0  0  0  0
    6.3675    3.6581   -0.9898 H   0  0  0  0  0  0  0  0  0  0  0  0
    8.7893    3.1506   -1.1221 H   0  0  0  0  0  0  0  0  0  0  0  0
  1 20  2  0  0  0  0
  2 31  2  0  0  0  0
  3  8  1  0  0  0  0
  3  9  1  0  0  0  0
  3 11  1  0  0  0  0
  4 15  1  0  0  0  0
  4 16  1  0  0  0  0
  4 20  1  0  0  0  0
  5 20  1  0  0  0  0
  5 21  1  0  0  0  0
  5 50  1  0  0  0  0
  6  7  1  0  0  0  0
  6 25  2  0  0  0  0
  7 31  1  0  0  0  0
  7 57  1  0  0  0  0
  8 10  1  0  0  0  0
  8 35  1  0  0  0  0
  8 36  1  0  0  0  0
  9 10  1  0  0  0  0
  9 37  1  0  0  0  0
  9 38  1  0  0  0  0
 10 39  1  0  0  0  0
 10 40  1  0  0  0  0
 11 12  1  0  0  0  0
 11 41  1  0  0  0  0
 11 42  1  0  0  0  0
 12 17  2  0  0  0  0
 12 18  1  0  0  0  0
 13 14  2  0  0  0  0
 13 15  1  0  0  0  0
 13 17  1  0  0  0  0
 14 16  1  0  0  0  0
 14 19  1  0  0  0  0
 15 43  1  0  0  0  0
 15 44  1  0  0  0  0
 16 45  1  0  0  0  0
 16 46  1  0  0  0  0
 17 47  1  0  0  0  0
 18 19  2  0  0  0  0
 18 48  1  0  0  0  0
 19 49  1  0  0  0  0
 21 22  2  0  0  0  0
 21 23  1  0  0  0  0
 22 26  1  0  0  0  0
 22 51  1  0  0  0  0
 23 27  2  0  0  0  0
 23 52  1  0  0  0  0
 24 25  1  0  0  0  0
 24 26  2  0  0  0  0
 24 27  1  0  0  0  0
 25 28  1  0  0  0  0
 26 53  1  0  0  0  0
 27 54  1  0  0  0  0
 28 29  1  0  0  0  0
 28 30  2  0  0  0  0
 29 31  1  0  0  0  0
 29 32  2  0  0  0  0
 30 33  1  0  0  0  0
 30 55  1  0  0  0  0
 32 34  1  0  0  0  0
 32 56  1  0  0  0  0
 33 34  2  0  0  0  0
 33 58  1  0  0  0  0
 34 59  1  0  0  0  0
M  END
> <PUBCHEM_COMPOUND_CID>
57510014

> <PUBCHEM_CONFORMER_RMSD>
1

> <PUBCHEM_CONFORMER_DIVERSEORDER>
1
98
52
30
54
84
4
89
33
82
36
23
12
67
90
85
96
7
20
94
70
24
81
2
44
11
73
80
9
32
15
91
75
77
78
57
62
92
45
26
43
18
50
86
68
71
53
3
63
25
16
48
46
49
31
88
13
29
8
47
66
58
27
34
40
69
39
60
37
5
95
22
64
56
93
59
74
28
10
83
19
79
42
55
21
51
35
72
38
61
14
76
6
97
41
65
17
87

> <PUBCHEM_MMFF94_PARTIAL_CHARGES>
46
1 -0.57
11 0.41
12 -0.14
13 -0.14
14 -0.14
15 0.44
16 0.44
17 -0.15
18 -0.15
19 -0.15
2 -0.57
20 0.69
21 0.12
22 -0.15
23 -0.15
24 0.09
25 0.28
26 -0.15
27 -0.15
28 0.09
29 0.09
3 -0.69
30 -0.15
31 0.54
32 -0.15
33 -0.15
34 -0.15
4 -0.66
47 0.15
48 0.15
49 0.15
5 -0.55
50 0.37
51 0.15
52 0.15
53 0.15
54 0.15
55 0.15
56 0.15
57 0.37
58 0.15
59 0.15
6 -0.51
7 -0.37
8 0.21
9 0.21

> <PUBCHEM_EFFECTIVE_ROTOR_COUNT>
7.4

> <PUBCHEM_PHARMACOPHORE_FEATURES>
12
1 1 acceptor
1 2 acceptor
1 3 cation
1 5 donor
1 6 acceptor
1 7 donor
4 3 8 9 10 rings
5 4 13 14 15 16 rings
6 12 13 14 17 18 19 rings
6 21 22 23 24 26 27 rings
6 28 29 30 32 33 34 rings
6 6 7 25 28 29 31 rings

> <PUBCHEM_HEAVY_ATOM_COUNT>
34

> <PUBCHEM_ATOM_DEF_STEREO_COUNT>
0

> <PUBCHEM_ATOM_UDEF_STEREO_COUNT>
0

> <PUBCHEM_BOND_DEF_STEREO_COUNT>
0

> <PUBCHEM_BOND_UDEF_STEREO_COUNT>
0

> <PUBCHEM_ISOTOPIC_ATOM_COUNT>
0

> <PUBCHEM_COMPONENT_COUNT>
1

> <PUBCHEM_CACTVS_TAUTO_COUNT>
6

> <PUBCHEM_CONFORMER_ID>
036D887E00000001

> <PUBCHEM_MMFF94_ENERGY>
123.9468

> <PUBCHEM_FEATURE_SELFOVERLAP>
61.006

> <PUBCHEM_SHAPE_FINGERPRINT>
10076449 9 16128658553283980867
10162869 55 18408603677610520316
10299344 5 18201718440415416378
10391435 84 15502380041264269185
10533779 1 18119812667718042300
10674148 151 8862942767448623815
10883706 142 18040992943738903392
10951579 204 15122971521023765424
11061554 47 16298379154977999765
11135609 127 18339923827330028848
11315181 36 18411141338638575153
12013929 94 18411138078774780115
12089408 11 18341614798360246417
12664476 115 17561079207753355265
12838862 33 15213012778668607577
13617811 41 16630532830479358912
13947934 56 17677056853998216291
13947947 19 17704067430005938517
14118638 360 15502647153495730089
14142895 15 18410294748053214117
14251764 18 17775283841940033027
14251764 46 17418092113885186646
14294032 229 17130447700565437240
14359421 15 13613425623794127172
150020 25 17385727993105591264
15065858 18 16950000344549397481
15145343 6 18060418028499217329
15183329 4 16702308944934138672
15247644 1 18343581815577667926
15392192 104 18201720656313294679
15419008 47 16949999227821647348
15461852 350 18408602557541856329
15510794 2 17676209073901644691
15840311 113 18260269672710689948
16120349 18 18334576850216577484
16728433 110 17989480832293512040
1754911 235 17821725036192430787
17686467 74 18260550052750567689
20105231 36 18188491273243851750
20771845 171 17917723383766185214
21267235 1 16773797005018371137
21362267 313 18116144463879760641
21792934 111 15502374551615420797
22224240 67 17675925395617358131
232437 2 18411418406388268935
23576562 1 17345466171194435924
249057 3 15068347817588561575
3092352 35 18272369772046007486
335507 130 16774077376157045733
395649 100 18187365489464624163
397830 11 17459485501393250320
4017518 198 17313107437126653083
4625314 4 18260548952542016543
4874694 18 15213017155361751553
59520757 100 16415189135956496630
6057620 51 18342177752524089993
6126387 218 17240481412851179613
67123 10 18408603669590161543
9663363 56 15213020454091819526

> <PUBCHEM_SHAPE_MULTIPOLES>
663.06
39.7
1.8
1.27
37.85
0.24
-0.25
-3.24
5.1
-3.5
0.18
0.73
0.19
-3.04

> <PUBCHEM_SHAPE_SELFOVERLAP>
1474.783

> <PUBCHEM_SHAPE_VOLUME>
355.4

> <PUBCHEM_COORDINATE_TYPE>
2
5
10

$$$$
57509998
  -OEChem-05102415043D

 52 56  0     0  0  0  0  0  0999 V2000
   -9.4658   -0.2966   -0.1717 O   0  0  0  0  0  0  0  0  0  0  0  0
   -1.8944    0.1647   -1.8932 O   0  0  0  0  0  0  0  0  0  0  0  0
    8.3946    1.4010   -0.1796 O   0  0  0  0  0  0  0  0  0  0  0  0
   -3.5258    0.0951   -0.2791 N   0  0  0  0  0  0  0  0  0  0  0  0
   -1.2797    0.2612    0.3566 N   0  0  0  0  0  0  0  0  0  0  0  0
    6.2155    2.1305   -0.0879 N   0  0  0  0  0  0  0  0  0  0  0  0
   -4.6223   -0.0037   -1.2523 C   0  0  0  0  0  0  0  0  0  0  0  0
   -4.0223    0.0959    1.1094 C   0  0  0  0  0  0  0  0  0  0  0  0
   -5.8471   -0.0634   -0.4031 C   0  0  0  0  0  0  0  0  0  0  0  0
   -5.5031   -0.0061    0.9529 C   0  0  0  0  0  0  0  0  0  0  0  0
   -7.1682   -0.1608   -0.8023 C   0  0  0  0  0  0  0  0  0  0  0  0
   -6.4725   -0.0447    1.9392 C   0  0  0  0  0  0  0  0  0  0  0  0
   -2.1904    0.1743   -0.6969 C   0  0  0  0  0  0  0  0  0  0  0  0
   -8.1543   -0.2008    0.1860 C   0  0  0  0  0  0  0  0  0  0  0  0
   -7.8092   -0.1432    1.5463 C   0  0  0  0  0  0  0  0  0  0  0  0
    0.1318    0.3538    0.2800 C   0  0  0  0  0  0  0  0  0  0  0  0
    4.3609    0.6301    0.0514 C   0  0  0  0  0  0  0  0  0  0  0  0
    2.9116    0.5353    0.1300 C   0  0  0  0  0  0  0  0  0  0  0  0
    5.3249   -0.4988    0.0331 C   0  0  0  0  0  0  0  0  0  0  0  0
    6.7067   -0.2475   -0.0455 C   0  0  0  0  0  0  0  0  0  0  0  0
    0.8897    0.4332    1.4485 C   0  0  0  0  0  0  0  0  0  0  0  0
    0.7638    0.3652   -0.9634 C   0  0  0  0  0  0  0  0  0  0  0  0
    2.2795    0.5241    1.3734 C   0  0  0  0  0  0  0  0  0  0  0  0
    2.1537    0.4560   -1.0384 C   0  0  0  0  0  0  0  0  0  0  0  0
    4.8718    1.8742   -0.0106 C   0  0  0  0  0  0  0  0  0  0  0  0
    4.8912   -1.8316    0.0913 C   0  0  0  0  0  0  0  0  0  0  0  0
    7.1949    1.1536   -0.1107 C   0  0  0  0  0  0  0  0  0  0  0  0
    7.6291   -1.3005   -0.0643 C   0  0  0  0  0  0  0  0  0  0  0  0
    5.8121   -2.8822    0.0726 C   0  0  0  0  0  0  0  0  0  0  0  0
    7.1771   -2.6171   -0.0047 C   0  0  0  0  0  0  0  0  0  0  0  0
   -9.7538   -0.3513   -1.5674 C   0  0  0  0  0  0  0  0  0  0  0  0
   -4.4865   -0.9115   -1.8479 H   0  0  0  0  0  0  0  0  0  0  0  0
   -4.6064    0.8819   -1.8948 H   0  0  0  0  0  0  0  0  0  0  0  0
   -3.6075   -0.7679    1.6373 H   0  0  0  0  0  0  0  0  0  0  0  0
   -3.7269    1.0315    1.5935 H   0  0  0  0  0  0  0  0  0  0  0  0
   -7.3657   -0.2008   -1.8666 H   0  0  0  0  0  0  0  0  0  0  0  0
   -6.2077   -0.0002    2.9900 H   0  0  0  0  0  0  0  0  0  0  0  0
   -8.5875   -0.1751    2.3048 H   0  0  0  0  0  0  0  0  0  0  0  0
   -1.6487    0.2597    1.3024 H   0  0  0  0  0  0  0  0  0  0  0  0
    0.4097    0.4251    2.4238 H   0  0  0  0  0  0  0  0  0  0  0  0
    0.2515    0.3072   -1.9126 H   0  0  0  0  0  0  0  0  0  0  0  0
    2.8558    0.5842    2.2937 H   0  0  0  0  0  0  0  0  0  0  0  0
    2.6324    0.4627   -2.0150 H   0  0  0  0  0  0  0  0  0  0  0  0
    4.2520    2.7653   -0.0036 H   0  0  0  0  0  0  0  0  0  0  0  0
    3.8342   -2.0785    0.1523 H   0  0  0  0  0  0  0  0  0  0  0  0
    6.5022    3.1043   -0.1305 H   0  0  0  0  0  0  0  0  0  0  0  0
    8.6979   -1.1150   -0.1248 H   0  0  0  0  0  0  0  0  0  0  0  0
    5.4614   -3.9093    0.1186 H   0  0  0  0  0  0  0  0  0  0  0  0
    7.8894   -3.4370   -0.0190 H   0  0  0  0  0  0  0  0  0  0  0  0
  -10.8414   -0.4259   -1.6703 H   0  0  0  0  0  0  0  0  0  0  0  0
   -9.3273   -1.2468   -2.0320 H   0  0  0  0  0  0  0  0  0  0  0  0
   -9.4473    0.5677   -2.0784 H   0  0  0  0  0  0  0  0  0  0  0  0
  1 14  1  0  0  0  0
  1 31  1  0  0  0  0
  2 13  2  0  0  0  0
  3 27  2  0  0  0  0
  4  7  1  0  0  0  0
  4  8  1  0  0  0  0
  4 13  1  0  0  0  0
  5 13  1  0  0  0  0
  5 16  1  0  0  0  0
  5 39  1  0  0  0  0
  6 25  1  0  0  0  0
  6 27  1  0  0  0  0
  6 46  1  0  0  0  0
  7  9  1  0  0  0  0
  7 32  1  0  0  0  0
  7 33  1  0  0  0  0
  8 10  1  0  0  0  0
  8 34  1  0  0  0  0
  8 35  1  0  0  0  0
  9 10  2  0  0  0  0
  9 11  1  0  0  0  0
 10 12  1  0  0  0  0
 11 14  2  0  0  0  0
 11 36  1  0  0  0  0
 12 15  2  0  0  0  0
 12 37  1  0  0  0  0
 14 15  1  0  0  0  0
 15 38  1  0  0  0  0
 16 21  2  0  0  0  0
 16 22  1  0  0  0  0
 17 18  1  0  0  0  0
 17 19  1  0  0  0  0
 17 25  2  0  0  0  0
 18 23  2  0  0  0  0
 18 24  1  0  0  0  0
 19 20  1  0  0  0  0
 19 26  2  0  0  0  0
 20 27  1  0  0  0  0
 20 28  2  0  0  0  0
 21 23  1  0  0  0  0
 21 40  1  0  0  0  0
 22 24  2  0  0  0  0
 22 41  1  0  0  0  0
 23 42  1  0  0  0  0
 24 43  1  0  0  0  0
 25 44  1  0  0  0  0
 26 29  1  0  0  0  0
 26 45  1  0  0  0  0
 28 30  1  0  0  0  0
 28 47  1  0  0  0  0
 29 30  2  0  0  0  0
 29 48  1  0  0  0  0
 30 49  1  0  0  0  0
 31 50  1  0  0  0  0
 31 51  1  0  0  0  0
 31 52  1  0  0  0  0
M  END
> <PUBCHEM_COMPOUND_CID>
57509998

> <PUBCHEM_CONFORMER_RMSD>
0.8

> <PUBCHEM_CONFORMER_DIVERSEORDER>
1
41
44
7
10
25
64
47
43
45
65
54
32
42
68
63
69
31
36
37
53
20
67
33
55
30
8
50
9
35
62
39
4
38
56
13
48
2
59
70
66
61
22
5
60
40
12
28
15
34
57
52
51
58
17
19
16
6
29
3
23
18
14
24
46
49
27
11
21
26

> <PUBCHEM_MMFF94_PARTIAL_CHARGES>
45
1 -0.36
10 -0.14
11 -0.15
12 -0.15
13 0.69
14 0.08
15 -0.15
16 0.12
17 -0.06
18 0.03
19 0.03
2 -0.57
20 0.09
21 -0.15
22 -0.15
23 -0.15
24 -0.15
25 -0.04
26 -0.15
27 0.54
28 -0.15
29 -0.15
3 -0.57
30 -0.15
31 0.28
36 0.15
37 0.15
38 0.15
39 0.37
4 -0.66
40 0.15
41 0.15
42 0.15
43 0.15
44 0.15
45 0.15
46 0.37
47 0.15
48 0.15
49 0.15
5 -0.55
6 -0.54
7 0.44
8 0.44
9 -0.14

> <PUBCHEM_EFFECTIVE_ROTOR_COUNT>
5.6

> <PUBCHEM_PHARMACOPHORE_FEATURES>
10
1 1 acceptor
1 2 acceptor
1 3 acceptor
1 5 donor
1 6 donor
5 4 7 8 9 10 rings
6 16 18 21 22 23 24 rings
6 19 20 26 28 29 30 rings
6 6 17 19 20 25 27 rings
6 9 10 11 12 14 15 rings

> <PUBCHEM_HEAVY_ATOM_COUNT>
31

> <PUBCHEM_ATOM_DEF_STEREO_COUNT>
0

> <PUBCHEM_ATOM_UDEF_STEREO_COUNT>
0

> <PUBCHEM_BOND_DEF_STEREO_COUNT>
0

> <PUBCHEM_BOND_UDEF_STEREO_COUNT>
0

> <PUBCHEM_ISOTOPIC_ATOM_COUNT>
0

> <PUBCHEM_COMPONENT_COUNT>
1

> <PUBCHEM_CACTVS_TAUTO_COUNT>
4

> <PUBCHEM_CONFORMER_ID>
036D886E00000001

> <PUBCHEM_MMFF94_ENERGY>
109.8894

> <PUBCHEM_FEATURE_SELFOVERLAP>
50.855

> <PUBCHEM_SHAPE_FINGERPRINT>
10 15 15410605999841839290
10050765 1 14853602299766426865
10299344 5 18060701697286135615
10319688 140 17896592895467177306
11719270 70 16343989087261710646
12082328 90 18409165485873060117
12089408 11 17703792518297827905
12133447 93 16443339815834610239
12144603 126 17560799966164965064
13383665 225 14707770572450918095
13533116 47 18342738499607700498
13560911 43 16917071070793317283
13617811 41 15574715773099939614
13685833 64 18261395525093082914
13885169 127 18040715832233018941
14028597 1 17489311819617339763
14040222 383 16702299092274290143
14117953 113 16515684451348526927
14118638 360 18410014304391374480
14251764 18 17632859728702110153
14251764 46 18411418427309126476
14294032 229 14779818288079558815
150020 25 17676207952957579651
15131766 46 17912635010423788341
15152005 1 17696195803943562262
15183329 4 17203612596557353945
15198563 99 17749669571609911877
15247644 1 18341894086983423551
15301273 46 17822009800729000869
15328684 2 17273986748205080179
15352257 5 18333454248196311291
15392192 104 17346320418355734406
15419008 47 17531240677619731837
15419008 91 17241032301661312917
15510794 2 17821728333899353643
1577012 14 17632576062917714308
15849732 13 17676489462209502695
16120349 18 18412542137141526180
19301679 30 17416974915988540670
19315958 150 18260834830060795610
20105231 36 17240208720529059195
20771845 140 16630238113965858190
21150785 3 12396302560343365007
21267235 1 16298394569710368109
21315759 40 18131351925552716773
21344244 181 18113341877972428170
22956985 138 16555958308375679622
23516275 137 18058471853583950174
23522609 53 17773898525877559800
249057 3 16298107614328877735
2835820 82 18268431227186251102
335352 9 16200433601991499401
34797466 226 17603587448132463684
4017518 198 17967814951727445747
4073 2 18268989976476046858
45377200 153 18187929543024376043
4625314 4 18186801418181002469
5219985 9 17704353268801343585
57527295 17 17316766461826465946
59520647 119 18336545023223183211
6691757 9 16917073296082884847

> <PUBCHEM_SHAPE_MULTIPOLES>
605.41
32.37
1.69
1.36
34.42
0.87
0.14
6.2
-1.63
-6.31
0.01
2.95
-0.06
-0.45

> <PUBCHEM_SHAPE_SELFOVERLAP>
1349.83

> <PUBCHEM_SHAPE_VOLUME>
321.2

> <PUBCHEM_COORDINATE_TYPE>
2
5
10

$$$$
57510016
  -OEChem-05102415043D

 60 65  0     0  0  0  0  0  0999 V2000
   -0.0671    2.3201    1.1072 O   0  0  0  0  0  0  0  0  0  0  0  0
    9.6186   -1.6739    0.5118 O   0  0  0  0  0  0  0  0  0  0  0  0
   -7.9802   -1.2462   -0.4734 N   0  0  0  0  0  0  0  0  0  0  0  0
   -1.9752    1.3085    0.3280 N   0  0  0  0  0  0  0  0  0  0  0  0
    0.0938    0.2572    0.0268 N   0  0  0  0  0  0  0  0  0  0  0  0
    6.6399    0.0801   -0.3958 N   0  0  0  0  0  0  0  0  0  0  0  0
    6.0753   -1.8436    0.8077 N   0  0  0  0  0  0  0  0  0  0  0  0
    7.4052   -2.1380    0.9013 N   0  0  0  0  0  0  0  0  0  0  0  0
   -8.9292   -2.0487   -1.2444 C   0  0  0  0  0  0  0  0  0  0  0  0
   -8.5478   -1.1762    0.8728 C   0  0  0  0  0  0  0  0  0  0  0  0
   -9.2869   -3.1711   -0.2814 C   0  0  0  0  0  0  0  0  0  0  0  0
   -9.0396   -2.5965    1.1101 C   0  0  0  0  0  0  0  0  0  0  0  0
   -7.7650    0.0705   -1.0548 C   0  0  0  0  0  0  0  0  0  0  0  0
   -6.5142    0.7137   -0.5554 C   0  0  0  0  0  0  0  0  0  0  0  0
   -4.1466    0.7016   -0.2680 C   0  0  0  0  0  0  0  0  0  0  0  0
   -4.2177    1.9387    0.3836 C   0  0  0  0  0  0  0  0  0  0  0  0
   -2.7310    0.2338   -0.3417 C   0  0  0  0  0  0  0  0  0  0  0  0
   -2.8560    2.3886    0.7935 C   0  0  0  0  0  0  0  0  0  0  0  0
   -5.2857    0.0764   -0.7430 C   0  0  0  0  0  0  0  0  0  0  0  0
   -6.5858    1.9549    0.0982 C   0  0  0  0  0  0  0  0  0  0  0  0
   -5.4299    2.5778    0.5744 C   0  0  0  0  0  0  0  0  0  0  0  0
   -0.5898    1.3640    0.5315 C   0  0  0  0  0  0  0  0  0  0  0  0
    1.4869    0.0036    0.0665 C   0  0  0  0  0  0  0  0  0  0  0  0
    4.2302   -0.4965    0.1472 C   0  0  0  0  0  0  0  0  0  0  0  0
    1.9995   -1.1657   -0.4954 C   0  0  0  0  0  0  0  0  0  0  0  0
    2.3460    0.9229    0.6687 C   0  0  0  0  0  0  0  0  0  0  0  0
    5.6866   -0.7633    0.1897 C   0  0  0  0  0  0  0  0  0  0  0  0
    3.3710   -1.4157   -0.4550 C   0  0  0  0  0  0  0  0  0  0  0  0
    3.7176    0.6728    0.7091 C   0  0  0  0  0  0  0  0  0  0  0  0
    7.9812   -0.1952   -0.3058 C   0  0  0  0  0  0  0  0  0  0  0  0
    6.4698    1.2204   -1.1440 C   0  0  0  0  0  0  0  0  0  0  0  0
    8.6742    0.7985   -0.9627 C   0  0  0  0  0  0  0  0  0  0  0  0
    8.4354   -1.3671    0.3861 C   0  0  0  0  0  0  0  0  0  0  0  0
    7.7166    1.6936   -1.4935 C   0  0  0  0  0  0  0  0  0  0  0  0
   -8.4888   -2.4366   -2.1683 H   0  0  0  0  0  0  0  0  0  0  0  0
   -9.8305   -1.4761   -1.4989 H   0  0  0  0  0  0  0  0  0  0  0  0
   -9.3961   -0.4815    0.9252 H   0  0  0  0  0  0  0  0  0  0  0  0
   -7.8090   -0.8810    1.6247 H   0  0  0  0  0  0  0  0  0  0  0  0
  -10.3252   -3.4937   -0.4084 H   0  0  0  0  0  0  0  0  0  0  0  0
   -8.6417   -4.0427   -0.4424 H   0  0  0  0  0  0  0  0  0  0  0  0
   -8.2774   -3.1916    1.6267 H   0  0  0  0  0  0  0  0  0  0  0  0
   -9.9476   -2.6100    1.7215 H   0  0  0  0  0  0  0  0  0  0  0  0
   -8.6386    0.7208   -0.9131 H   0  0  0  0  0  0  0  0  0  0  0  0
   -7.6479   -0.0225   -2.1440 H   0  0  0  0  0  0  0  0  0  0  0  0
   -2.5818   -0.7018    0.2054 H   0  0  0  0  0  0  0  0  0  0  0  0
   -2.3844    0.1444   -1.3755 H   0  0  0  0  0  0  0  0  0  0  0  0
   -2.5626    3.3213    0.3024 H   0  0  0  0  0  0  0  0  0  0  0  0
   -2.7596    2.4809    1.8796 H   0  0  0  0  0  0  0  0  0  0  0  0
   -5.2152   -0.8801   -1.2510 H   0  0  0  0  0  0  0  0  0  0  0  0
   -7.5447    2.4466    0.2430 H   0  0  0  0  0  0  0  0  0  0  0  0
   -5.4871    3.5359    1.0793 H   0  0  0  0  0  0  0  0  0  0  0  0
   -0.4510   -0.4675   -0.4298 H   0  0  0  0  0  0  0  0  0  0  0  0
    1.3411   -1.8900   -0.9681 H   0  0  0  0  0  0  0  0  0  0  0  0
    2.0304    1.8484    1.1279 H   0  0  0  0  0  0  0  0  0  0  0  0
    3.7578   -2.3292   -0.8995 H   0  0  0  0  0  0  0  0  0  0  0  0
    4.3748    1.3933    1.1894 H   0  0  0  0  0  0  0  0  0  0  0  0
    5.4873    1.6103   -1.3710 H   0  0  0  0  0  0  0  0  0  0  0  0
    9.7489    0.8648   -1.0610 H   0  0  0  0  0  0  0  0  0  0  0  0
    7.9099    2.5822   -2.0779 H   0  0  0  0  0  0  0  0  0  0  0  0
    7.6089   -2.9953    1.4051 H   0  0  0  0  0  0  0  0  0  0  0  0
  1 22  2  0  0  0  0
  2 33  2  0  0  0  0
  3  9  1  0  0  0  0
  3 10  1  0  0  0  0
  3 13  1  0  0  0  0
  4 17  1  0  0  0  0
  4 18  1  0  0  0  0
  4 22  1  0  0  0  0
  5 22  1  0  0  0  0
  5 23  1  0  0  0  0
  5 52  1  0  0  0  0
  6 27  1  0  0  0  0
  6 30  1  0  0  0  0
  6 31  1  0  0  0  0
  7  8  1  0  0  0  0
  7 27  2  0  0  0  0
  8 33  1  0  0  0  0
  8 60  1  0  0  0  0
  9 11  1  0  0  0  0
  9 35  1  0  0  0  0
  9 36  1  0  0  0  0
 10 12  1  0  0  0  0
 10 37  1  0  0  0  0
 10 38  1  0  0  0  0
 11 12  1  0  0  0  0
 11 39  1  0  0  0  0
 11 40  1  0  0  0  0
 12 41  1  0  0  0  0
 12 42  1  0  0  0  0
 13 14  1  0  0  0  0
 13 43  1  0  0  0  0
 13 44  1  0  0  0  0
 14 19  2  0  0  0  0
 14 20  1  0  0  0  0
 15 16  2  0  0  0  0
 15 17  1  0  0  0  0
 15 19  1  0  0  0  0
 16 18  1  0  0  0  0
 16 21  1  0  0  0  0
 17 45  1  0  0  0  0
 17 46  1  0  0  0  0
 18 47  1  0  0  0  0
 18 48  1  0  0  0  0
 19 49  1  0  0  0  0
 20 21  2  0  0  0  0
 20 50  1  0  0  0  0
 21 51  1  0  0  0  0
 23 25  2  0  0  0  0
 23 26  1  0  0  0  0
 24 27  1  0  0  0  0
 24 28  2  0  0  0  0
 24 29  1  0  0  0  0
 25 28  1  0  0  0  0
 25 53  1  0  0  0  0
 26 29  2  0  0  0  0
 26 54  1  0  0  0  0
 28 55  1  0  0  0  0
 29 56  1  0  0  0  0
 30 32  2  0  0  0  0
 30 33  1  0  0  0  0
 31 34  2  0  0  0  0
 31 57  1  0  0  0  0
 32 34  1  0  0  0  0
 32 58  1  0  0  0  0
 34 59  1  0  0  0  0
M  END
> <PUBCHEM_COMPOUND_CID>
57510016

> <PUBCHEM_CONFORMER_RMSD>
1

> <PUBCHEM_CONFORMER_DIVERSEORDER>
3
61
69
66
87
105
75
102
56
45
73
5
89
92
98
12
94
17
82
1
64
21
70
67
83
11
30
77
103
101
100
90
108
55
68
93
50
43
57
37
71
6
44
72
81
35
32
36
49
78
88
10
59
2
42
91
39
84
18
29
62
24
4
52
31
79
40
33
41
28
80
104
47
65
9
76
60
86
85
95
14
48
13
99
38
106
97
63
51
19
53
96
15
25
74
16
22
23
54
8
27
26
46
34
7
107
20
58

> <PUBCHEM_MMFF94_PARTIAL_CHARGES>
44
1 -0.57
10 0.27
13 0.41
14 -0.14
15 -0.14
16 -0.14
17 0.44
18 0.44
19 -0.15
2 -0.57
20 -0.15
21 -0.15
22 0.69
23 0.12
24 0.09
25 -0.15
26 -0.15
27 0.37
28 -0.15
29 -0.15
3 -0.81
30 -0.24
31 -0.3
32 -0.15
33 0.71
34 -0.15
4 -0.66
49 0.15
5 -0.55
50 0.15
51 0.15
52 0.37
53 0.15
54 0.15
55 0.15
56 0.15
57 0.15
58 0.15
59 0.15
6 0.29
60 0.37
7 -0.51
8 -0.37
9 0.27

> <PUBCHEM_EFFECTIVE_ROTOR_COUNT>
7.6

> <PUBCHEM_PHARMACOPHORE_FEATURES>
12
1 1 acceptor
1 2 acceptor
1 3 cation
1 5 donor
1 8 donor
3 6 7 27 cation
5 3 9 10 11 12 rings
5 4 15 16 17 18 rings
5 6 30 31 32 34 rings
6 14 15 16 19 20 21 rings
6 23 24 25 26 28 29 rings
6 6 7 8 27 30 33 rings

> <PUBCHEM_HEAVY_ATOM_COUNT>
34

> <PUBCHEM_ATOM_DEF_STEREO_COUNT>
0

> <PUBCHEM_ATOM_UDEF_STEREO_COUNT>
0

> <PUBCHEM_BOND_DEF_STEREO_COUNT>
0

> <PUBCHEM_BOND_UDEF_STEREO_COUNT>
0

> <PUBCHEM_ISOTOPIC_ATOM_COUNT>
0

> <PUBCHEM_COMPONENT_COUNT>
1

> <PUBCHEM_CACTVS_TAUTO_COUNT>
6

> <PUBCHEM_CONFORMER_ID>
036D888000000003

> <PUBCHEM_MMFF94_ENERGY>
96.127

> <PUBCHEM_FEATURE_SELFOVERLAP>
61.087

> <PUBCHEM_SHAPE_FINGERPRINT>
10076449 9 17989491840178341337
10162869 55 18040997341790604558
10299344 5 18411699855463326460
10533779 47 14189309174312622453
11135609 127 18114749343678002892
11135609 99 18340767148120834447
11315181 36 18333733499418848029
11497681 19 18333729100749598133
11828042 206 17894905240572802469
12082328 90 18408319961061931541
12089408 11 18335140873621808956
12539745 222 17632301182071479889
1361 4 18338796702830083563
14040222 383 18343580741845639939
14142895 15 18261960738425821380
14202775 3 18271247115367533230
14344974 52 18272090539822953436
14444916 359 16200437974695053629
15064986 266 18408889560125984281
15198563 99 15719669832459701902
15461852 350 18408042909917210325
15840311 113 17749393681150072788
15979999 66 18333730221658091461
16120349 18 17967814955900164268
16728433 110 18343578565019913800
1754911 235 16877938339543179023
17686467 74 18411415133428497889
17852330 162 17532664630997048660
1818759 1 17988928881292224031
19611394 137 18342177830165992355
20105231 36 16845858987990578084
21049683 271 18341614840672583800
21102433 48 18189327984871968610
21130935 74 18058167211848297090
21267235 1 18130787880441014617
21792934 111 11891333180477727198
21792938 703 17603875550248746809
21927370 108 16773803589045201817
22149856 69 17202775791226434594
22164985 6 17967532351098927207
232437 2 18408323284928859350
23569917 315 18129105529373315366
23576562 1 15719684276698643167
2835820 83 18268708493796553815
335507 130 17989486329097101549
3552219 110 16343708754620090449
395649 100 17967536800870175347
4461854 278 17346600807217656295
5381727 24 18412262818982183710
54039377 194 18412263974243730631
54583773 228 18335988674132524380
6057620 51 18334014986251741248
636775 8 18411985793332927615
6691757 9 13190347834133258261
67123 10 18260830401432477399
9962374 69 17988071301288630301
9995097 26 18334860549980838921
999808 66 18342458154418560495

> <PUBCHEM_SHAPE_MULTIPOLES>
658.08
37.92
2.85
1.09
1.05
0.5
-0.12
23.02
-4.68
5.1
0.54
0.07
-0.02
-2.27

> <PUBCHEM_SHAPE_SELFOVERLAP>
1459.612

> <PUBCHEM_SHAPE_VOLUME>
352.8

> <PUBCHEM_COORDINATE_TYPE>
2
5
10

$$$$
57510002
  -OEChem-05102415043D

 50 54  0     0  0  0  0  0  0999 V2000
   -2.5009    1.0300   -1.5800 O   0  0  0  0  0  0  0  0  0  0  0  0
    7.5510   -1.8213   -0.8008 O   0  0  0  0  0  0  0  0  0  0  0  0
   -4.2699    0.1966   -0.3769 N   0  0  0  0  0  0  0  0  0  0  0  0
   -2.0864   -0.3973    0.2200 N   0  0  0  0  0  0  0  0  0  0  0  0
    4.1094   -1.9253    0.0715 N   0  0  0  0  0  0  0  0  0  0  0  0
    5.4393   -2.1608    0.0020 N   0  0  0  0  0  0  0  0  0  0  0  0
   -4.8876   -0.6037    0.6966 C   0  0  0  0  0  0  0  0  0  0  0  0
   -5.2775    0.8905   -1.1907 C   0  0  0  0  0  0  0  0  0  0  0  0
   -6.3505   -0.3720    0.5101 C   0  0  0  0  0  0  0  0  0  0  0  0
   -6.5737    0.4856   -0.5736 C   0  0  0  0  0  0  0  0  0  0  0  0
   -7.4040   -0.8833    1.2470 C   0  0  0  0  0  0  0  0  0  0  0  0
   -7.8556    0.8510   -0.9443 C   0  0  0  0  0  0  0  0  0  0  0  0
   -2.9016    0.3283   -0.6494 C   0  0  0  0  0  0  0  0  0  0  0  0
   -8.7020   -0.5204    0.8805 C   0  0  0  0  0  0  0  0  0  0  0  0
   -8.9260    0.3402   -0.2068 C   0  0  0  0  0  0  0  0  0  0  0  0
   -0.6721   -0.4805    0.2198 C   0  0  0  0  0  0  0  0  0  0  0  0
    4.3707    0.5285    0.3972 C   0  0  0  0  0  0  0  0  0  0  0  0
    5.4674    0.8002   -0.4269 C   0  0  0  0  0  0  0  0  0  0  0  0
    3.6044   -0.7354    0.2158 C   0  0  0  0  0  0  0  0  0  0  0  0
    2.1126   -0.6467    0.2180 C   0  0  0  0  0  0  0  0  0  0  0  0
    5.9062   -0.2154   -1.4335 C   0  0  0  0  0  0  0  0  0  0  0  0
    0.0677    0.2199   -0.7331 C   0  0  0  0  0  0  0  0  0  0  0  0
   -0.0197   -1.2639    1.1717 C   0  0  0  0  0  0  0  0  0  0  0  0
    1.4600    0.1366   -0.7340 C   0  0  0  0  0  0  0  0  0  0  0  0
    1.3726   -1.3471    1.1707 C   0  0  0  0  0  0  0  0  0  0  0  0
    3.9818    1.4463    1.3816 C   0  0  0  0  0  0  0  0  0  0  0  0
    6.1611    2.0062   -0.2681 C   0  0  0  0  0  0  0  0  0  0  0  0
    6.3764   -1.4556   -0.7198 C   0  0  0  0  0  0  0  0  0  0  0  0
    4.6807    2.6437    1.5308 C   0  0  0  0  0  0  0  0  0  0  0  0
    5.7663    2.9252    0.7046 C   0  0  0  0  0  0  0  0  0  0  0  0
   -4.5364   -0.2341    1.6645 H   0  0  0  0  0  0  0  0  0  0  0  0
   -4.6203   -1.6553    0.5568 H   0  0  0  0  0  0  0  0  0  0  0  0
   -5.1890    0.5528   -2.2277 H   0  0  0  0  0  0  0  0  0  0  0  0
   -5.1056    1.9690   -1.1232 H   0  0  0  0  0  0  0  0  0  0  0  0
   -7.2328   -1.5477    2.0869 H   0  0  0  0  0  0  0  0  0  0  0  0
   -8.0305    1.5155   -1.7834 H   0  0  0  0  0  0  0  0  0  0  0  0
   -9.5486   -0.9070    1.4416 H   0  0  0  0  0  0  0  0  0  0  0  0
   -9.9437    0.6105   -0.4758 H   0  0  0  0  0  0  0  0  0  0  0  0
   -2.5378   -0.9401    0.9494 H   0  0  0  0  0  0  0  0  0  0  0  0
    6.7309    0.1685   -2.0456 H   0  0  0  0  0  0  0  0  0  0  0  0
    5.0925   -0.4624   -2.1250 H   0  0  0  0  0  0  0  0  0  0  0  0
   -0.3594    0.8459   -1.5029 H   0  0  0  0  0  0  0  0  0  0  0  0
   -0.5843   -1.8141    1.9200 H   0  0  0  0  0  0  0  0  0  0  0  0
    2.0243    0.6827   -1.4857 H   0  0  0  0  0  0  0  0  0  0  0  0
    1.8688   -1.9582    1.9202 H   0  0  0  0  0  0  0  0  0  0  0  0
    3.1411    1.2446    2.0398 H   0  0  0  0  0  0  0  0  0  0  0  0
    7.0187    2.2356   -0.8954 H   0  0  0  0  0  0  0  0  0  0  0  0
    4.3785    3.3570    2.2921 H   0  0  0  0  0  0  0  0  0  0  0  0
    6.3107    3.8577    0.8224 H   0  0  0  0  0  0  0  0  0  0  0  0
    5.7092   -3.0613    0.3864 H   0  0  0  0  0  0  0  0  0  0  0  0
  1 13  2  0  0  0  0
  2 28  2  0  0  0  0
  3  7  1  0  0  0  0
  3  8  1  0  0  0  0
  3 13  1  0  0  0  0
  4 13  1  0  0  0  0
  4 16  1  0  0  0  0
  4 39  1  0  0  0  0
  5  6  1  0  0  0  0
  5 19  2  0  0  0  0
  6 28  1  0  0  0  0
  6 50  1  0  0  0  0
  7  9  1  0  0  0  0
  7 31  1  0  0  0  0
  7 32  1  0  0  0  0
  8 10  1  0  0  0  0
  8 33  1  0  0  0  0
  8 34  1  0  0  0  0
  9 10  1  0  0  0  0
  9 11  2  0  0  0  0
 10 12  2  0  0  0  0
 11 14  1  0  0  0  0
 11 35  1  0  0  0  0
 12 15  1  0  0  0  0
 12 36  1  0  0  0  0
 14 15  2  0  0  0  0
 14 37  1  0  0  0  0
 15 38  1  0  0  0  0
 16 22  2  0  0  0  0
 16 23  1  0  0  0  0
 17 18  1  0  0  0  0
 17 19  1  0  0  0  0
 17 26  2  0  0  0  0
 18 21  1  0  0  0  0
 18 27  2  0  0  0  0
 19 20  1  0  0  0  0
 20 24  2  0  0  0  0
 20 25  1  0  0  0  0
 21 28  1  0  0  0  0
 21 40  1  0  0  0  0
 21 41  1  0  0  0  0
 22 24  1  0  0  0  0
 22 42  1  0  0  0  0
 23 25  2  0  0  0  0
 23 43  1  0  0  0  0
 24 44  1  0  0  0  0
 25 45  1  0  0  0  0
 26 29  1  0  0  0  0
 26 46  1  0  0  0  0
 27 30  1  0  0  0  0
 27 47  1  0  0  0  0
 29 30  2  0  0  0  0
 29 48  1  0  0  0  0
 30 49  1  0  0  0  0
M  END
> <PUBCHEM_COMPOUND_CID>
57510002

> <PUBCHEM_CONFORMER_RMSD>
0.8

> <PUBCHEM_CONFORMER_DIVERSEORDER>
2
37
48
29
50
26
11
47
55
51
43
28
25
19
27
12
14
20
46
31
5
41
53
52
1
33
45
54
32
9
40
36
21
30
16
23
38
39
42
49
35
44
22
7
17
15
18
13
34
10
6
8
4
3
24

> <PUBCHEM_MMFF94_PARTIAL_CHARGES>
44
1 -0.57
10 -0.14
11 -0.15
12 -0.15
13 0.69
14 -0.15
15 -0.15
16 0.12
17 0.09
18 -0.14
19 0.28
2 -0.57
20 0.09
21 0.2
22 -0.15
23 -0.15
24 -0.15
25 -0.15
26 -0.15
27 -0.15
28 0.57
29 -0.15
3 -0.66
30 -0.15
35 0.15
36 0.15
37 0.15
38 0.15
39 0.37
4 -0.55
42 0.15
43 0.15
44 0.15
45 0.15
46 0.15
47 0.15
48 0.15
49 0.15
5 -0.51
50 0.37
6 -0.37
7 0.44
8 0.44
9 -0.14

> <PUBCHEM_EFFECTIVE_ROTOR_COUNT>
5

> <PUBCHEM_PHARMACOPHORE_FEATURES>
10
1 1 acceptor
1 2 acceptor
1 4 donor
1 5 acceptor
1 6 donor
5 3 7 8 9 10 rings
6 16 20 22 23 24 25 rings
6 17 18 26 27 29 30 rings
6 9 10 11 12 14 15 rings
7 5 6 17 18 19 21 28 rings

> <PUBCHEM_HEAVY_ATOM_COUNT>
30

> <PUBCHEM_ATOM_DEF_STEREO_COUNT>
0

> <PUBCHEM_ATOM_UDEF_STEREO_COUNT>
0

> <PUBCHEM_BOND_DEF_STEREO_COUNT>
0

> <PUBCHEM_BOND_UDEF_STEREO_COUNT>
0

> <PUBCHEM_ISOTOPIC_ATOM_COUNT>
0

> <PUBCHEM_COMPONENT_COUNT>
1

> <PUBCHEM_CACTVS_TAUTO_COUNT>
53

> <PUBCHEM_CONFORMER_ID>
036D887200000002

> <PUBCHEM_MMFF94_ENERGY>
117.1709

> <PUBCHEM_FEATURE_SELFOVERLAP>
50.842

> <PUBCHEM_SHAPE_FINGERPRINT>
10 15 17676482886741250961
10165383 225 18334860563493858940
10299344 5 17203327814999176743
10638233 991 17775567559085293265
11181472 205 17845382038403217377
11315181 36 18408324381553787681
11607047 191 17985530377990221168
11719270 70 17167859755830584091
11991303 11 17131541838956341775
12516196 113 18040997341516596989
12664476 115 18186799171617954740
12730499 353 18408040706694179906
12838862 33 17095791201858815091
13383665 225 17752498809055334182
13533116 47 18343018878940554026
13617811 41 14979963579194255488
14170010 4 18187366544854979845
14461889 52 17530684329336109435
14933364 13 18410012135110662221
150020 25 18260548909866695607
15131766 46 17629185285101814080
15183329 4 13614248104790947057
15301273 46 18186519904238518797
15419008 47 18260261945822476829
15419008 91 17822274800544214941
1577012 14 16988838423483845885
15840311 113 18411982489854542533
15849732 13 18113622283359493191
19302320 297 18116423933983599600
20157964 124 18272369789483819576
20771845 65 17274822399677042506
21033648 29 18263919020432869952
21130935 74 17822287947539042347
21521721 280 18413389856343060619
221357 26 18341894065850620664
22149856 69 17968388857888555193
22224240 67 17676483973752800035
22956985 138 15287857492643189850
23424782 7 18261959643288418387
23522609 53 16773250586188480713
24771293 8 17970340632329379036
249057 25 17060350603940570970
249057 3 18131350813346429398
255183 451 17129882521581914094
2747138 104 17822016419543038649
3004659 81 16515409568887769743
3383291 50 17022911198803509947
34797466 226 18131073735825126340
397830 11 18264210382350442859
4073 2 18187367679027396843
4093350 32 17846219972967865020
437795 51 18410290345912429681
44317340 157 18342173397305945118
4625314 4 18272650147890528231
5104073 3 17750782273725272665
5109719 28 17895199947309828137
5758199 1 17967814951383488483
58083652 198 18202563973753508465
59521099 67 17632855322778530064
59682541 35 17968098668575785889
9658208 31 18041282166473204242
9689198 14 18341895203958736909

> <PUBCHEM_SHAPE_MULTIPOLES>
585.72
27.6
2.09
1.31
40.04
0.71
-0.06
2.22
1.29
-5.73
-0.52
-0.01
0.23
2.84

> <PUBCHEM_SHAPE_SELFOVERLAP>
1302.953

> <PUBCHEM_SHAPE_VOLUME>
310

> <PUBCHEM_COORDINATE_TYPE>
2
5
10

$$$$
57509990
  -OEChem-05102415043D

 47 51  0     0  0  0  0  0  0999 V2000
   -2.4677    0.3642    1.9842 O   0  0  0  0  0  0  0  0  0  0  0  0
    7.7084    1.3051    0.0202 O   0  0  0  0  0  0  0  0  0  0  0  0
   -4.1374    0.0956    0.4314 N   0  0  0  0  0  0  0  0  0  0  0  0
   -1.9114    0.2269   -0.2786 N   0  0  0  0  0  0  0  0  0  0  0  0
    4.2272    1.9256   -0.2445 N   0  0  0  0  0  0  0  0  0  0  0  0
    5.5674    2.0972   -0.1919 N   0  0  0  0  0  0  0  0  0  0  0  0
   -4.6688   -0.0609   -0.9352 C   0  0  0  0  0  0  0  0  0  0  0  0
   -5.2073    0.0865    1.4386 C   0  0  0  0  0  0  0  0  0  0  0  0
   -6.1430   -0.1695   -0.7286 C   0  0  0  0  0  0  0  0  0  0  0  0
   -6.4517   -0.0845    0.6342 C   0  0  0  0  0  0  0  0  0  0  0  0
   -7.1360   -0.3321   -1.6784 C   0  0  0  0  0  0  0  0  0  0  0  0
   -7.7602   -0.1604    1.0773 C   0  0  0  0  0  0  0  0  0  0  0  0
   -2.7937    0.2401    0.8022 C   0  0  0  0  0  0  0  0  0  0  0  0
   -8.4602   -0.4096   -1.2411 C   0  0  0  0  0  0  0  0  0  0  0  0
   -8.7698   -0.3244    0.1263 C   0  0  0  0  0  0  0  0  0  0  0  0
   -0.5002    0.3492   -0.2506 C   0  0  0  0  0  0  0  0  0  0  0  0
    2.2782    0.5926   -0.1959 C   0  0  0  0  0  0  0  0  0  0  0  0
    3.7488    0.7220   -0.1657 C   0  0  0  0  0  0  0  0  0  0  0  0
    4.6004   -0.4820   -0.0484 C   0  0  0  0  0  0  0  0  0  0  0  0
    0.1625    0.5038    0.9671 C   0  0  0  0  0  0  0  0  0  0  0  0
    0.2262    0.3164   -1.4408 C   0  0  0  0  0  0  0  0  0  0  0  0
    1.5516    0.6255    0.9944 C   0  0  0  0  0  0  0  0  0  0  0  0
    1.6154    0.4382   -1.4134 C   0  0  0  0  0  0  0  0  0  0  0  0
    5.9767   -0.2786    0.0218 C   0  0  0  0  0  0  0  0  0  0  0  0
    4.0921   -1.7850   -0.0290 C   0  0  0  0  0  0  0  0  0  0  0  0
    6.5008    1.0949   -0.0454 C   0  0  0  0  0  0  0  0  0  0  0  0
    6.8501   -1.3651    0.1359 C   0  0  0  0  0  0  0  0  0  0  0  0
    4.9632   -2.8706    0.0841 C   0  0  0  0  0  0  0  0  0  0  0  0
    6.3384   -2.6613    0.1700 C   0  0  0  0  0  0  0  0  0  0  0  0
   -4.2510   -0.9697   -1.3786 H   0  0  0  0  0  0  0  0  0  0  0  0
   -4.4035    0.8218   -1.5245 H   0  0  0  0  0  0  0  0  0  0  0  0
   -5.1916    1.0370    1.9805 H   0  0  0  0  0  0  0  0  0  0  0  0
   -5.0399   -0.7487    2.1254 H   0  0  0  0  0  0  0  0  0  0  0  0
   -6.8986   -0.3982   -2.7346 H   0  0  0  0  0  0  0  0  0  0  0  0
   -8.0013   -0.0950    2.1327 H   0  0  0  0  0  0  0  0  0  0  0  0
   -9.2604   -0.5372   -1.9651 H   0  0  0  0  0  0  0  0  0  0  0  0
   -9.8066   -0.3870    0.4461 H   0  0  0  0  0  0  0  0  0  0  0  0
   -2.3040    0.1184   -1.2085 H   0  0  0  0  0  0  0  0  0  0  0  0
   -0.3245    0.5388    1.9307 H   0  0  0  0  0  0  0  0  0  0  0  0
   -0.2778    0.1966   -2.3964 H   0  0  0  0  0  0  0  0  0  0  0  0
    2.0594    0.7455    1.9481 H   0  0  0  0  0  0  0  0  0  0  0  0
    2.1718    0.4115   -2.3468 H   0  0  0  0  0  0  0  0  0  0  0  0
    3.0269   -1.9851   -0.0932 H   0  0  0  0  0  0  0  0  0  0  0  0
    7.9256   -1.2227    0.1937 H   0  0  0  0  0  0  0  0  0  0  0  0
    5.8670    3.0650   -0.2537 H   0  0  0  0  0  0  0  0  0  0  0  0
    4.5671   -3.8820    0.1052 H   0  0  0  0  0  0  0  0  0  0  0  0
    7.0120   -3.5089    0.2575 H   0  0  0  0  0  0  0  0  0  0  0  0
  1 13  2  0  0  0  0
  2 26  2  0  0  0  0
  3  7  1  0  0  0  0
  3  8  1  0  0  0  0
  3 13  1  0  0  0  0
  4 13  1  0  0  0  0
  4 16  1  0  0  0  0
  4 38  1  0  0  0  0
  5  6  1  0  0  0  0
  5 18  2  0  0  0  0
  6 26  1  0  0  0  0
  6 45  1  0  0  0  0
  7  9  1  0  0  0  0
  7 30  1  0  0  0  0
  7 31  1  0  0  0  0
  8 10  1  0  0  0  0
  8 32  1  0  0  0  0
  8 33  1  0  0  0  0
  9 10  1  0  0  0  0
  9 11  2  0  0  0  0
 10 12  2  0  0  0  0
 11 14  1  0  0  0  0
 11 34  1  0  0  0  0
 12 15  1  0  0  0  0
 12 35  1  0  0  0  0
 14 15  2  0  0  0  0
 14 36  1  0  0  0  0
 15 37  1  0  0  0  0
 16 20  2  0  0  0  0
 16 21  1  0  0  0  0
 17 18  1  0  0  0  0
 17 22  2  0  0  0  0
 17 23  1  0  0  0  0
 18 19  1  0  0  0  0
 19 24  1  0  0  0  0
 19 25  2  0  0  0  0
 20 22  1  0  0  0  0
 20 39  1  0  0  0  0
 21 23  2  0  0  0  0
 21 40  1  0  0  0  0
 22 41  1  0  0  0  0
 23 42  1  0  0  0  0
 24 26  1  0  0  0  0
 24 27  2  0  0  0  0
 25 28  1  0  0  0  0
 25 43  1  0  0  0  0
 27 29  1  0  0  0  0
 27 44  1  0  0  0  0
 28 29  2  0  0  0  0
 28 46  1  0  0  0  0
 29 47  1  0  0  0  0
M  END
> <PUBCHEM_COMPOUND_CID>
57509990

> <PUBCHEM_CONFORMER_RMSD>
0.8

> <PUBCHEM_CONFORMER_DIVERSEORDER>
1
22
25
17
10
21
12
13
20
23
26
4
24
9
18
16
11
19
6
15
5
14
8
7
2
3

> <PUBCHEM_MMFF94_PARTIAL_CHARGES>
43
1 -0.57
10 -0.14
11 -0.15
12 -0.15
13 0.69
14 -0.15
15 -0.15
16 0.12
17 0.09
18 0.28
19 0.09
2 -0.57
20 -0.15
21 -0.15
22 -0.15
23 -0.15
24 0.09
25 -0.15
26 0.54
27 -0.15
28 -0.15
29 -0.15
3 -0.66
34 0.15
35 0.15
36 0.15
37 0.15
38 0.37
39 0.15
4 -0.55
40 0.15
41 0.15
42 0.15
43 0.15
44 0.15
45 0.37
46 0.15
47 0.15
5 -0.51
6 -0.37
7 0.44
8 0.44
9 -0.14

> <PUBCHEM_EFFECTIVE_ROTOR_COUNT>
4.6

> <PUBCHEM_PHARMACOPHORE_FEATURES>
10
1 1 acceptor
1 2 acceptor
1 4 donor
1 5 acceptor
1 6 donor
5 3 7 8 9 10 rings
6 16 17 20 21 22 23 rings
6 19 24 25 27 28 29 rings
6 5 6 18 19 24 26 rings
6 9 10 11 12 14 15 rings

> <PUBCHEM_HEAVY_ATOM_COUNT>
29

> <PUBCHEM_ATOM_DEF_STEREO_COUNT>
0

> <PUBCHEM_ATOM_UDEF_STEREO_COUNT>
0

> <PUBCHEM_BOND_DEF_STEREO_COUNT>
0

> <PUBCHEM_BOND_UDEF_STEREO_COUNT>
0

> <PUBCHEM_ISOTOPIC_ATOM_COUNT>
0

> <PUBCHEM_COMPONENT_COUNT>
1

> <PUBCHEM_CACTVS_TAUTO_COUNT>
6

> <PUBCHEM_CONFORMER_ID>
036D886600000001

> <PUBCHEM_MMFF94_ENERGY>
102.2677

> <PUBCHEM_FEATURE_SELFOVERLAP>
50.855

> <PUBCHEM_SHAPE_FINGERPRINT>
10 15 15123500419669081618
10066227 49 18335700503560684059
10162869 55 18341324591440813868
10299344 5 18060700598265079351
10319688 140 17751068133357840650
106641 1 16630517437047408298
10951579 204 16733825246852409751
11315181 36 17775287192995640713
11719270 70 16845576396153656287
12082328 90 18408603652885214837
12089408 11 17489872643582528217
12236239 1 17917714582940305976
12741549 16 17676759934620244500
13533116 47 18342457024151058898
13560911 43 17346883364552011929
13617811 41 15574716872353084966
13668630 136 17894353281081507379
13685833 64 18260269628943208866
13914758 101 18336829693760193225
14068700 675 17132116862158355609
14118638 360 18409169879318804640
14251764 18 17846779615759239487
14251764 46 14779264224302533017
14294032 229 16486710081988713289
15119646 104 18202566146701010775
15183329 4 18412541011928594963
15198563 99 17604143710553300549
15328684 2 17345762871603404291
15419008 47 17530957004015326701
15419008 91 17313372479041218901
15510794 2 18040155132995376627
1577012 14 17988933245000251873
15840311 113 17489304231581142128
15849732 13 17748826332596531223
16120349 18 18410571825084055964
16989713 51 15141544549144668825
19315958 150 18260553355036586138
20157964 124 18409168827193832564
20165401 70 18200592493418051742
2026 5 18190175681106034250
21315759 40 18131633396239793325
21344244 78 18059002897020798048
22224240 67 12247677171745111373
22956985 138 16627452952138471830
23081809 10 18131638872159650321
23522609 53 17773623631086197977
23559900 14 18335420231353774953
23569943 247 17315911066505635258
23576562 1 14057591005853012607
24771293 8 13182433579015521090
249057 25 18200889430113244273
3383291 50 16950290620067144137
34797466 226 17313390045367430932
3633792 109 18261391114129917769
4073 2 18188776174860250650
4098825 35 18337670811565598169
4325135 7 16988848293603535125
44880568 143 17313101917486704317
5219985 9 17632576054998147961
5283156 175 18202565064648378873
59682541 35 14907890591993739739
5969126 39 18413105040330881317
59755656 215 16877942711366433075

> <PUBCHEM_SHAPE_MULTIPOLES>
565.14
27.81
1.75
1.3
29.4
0.94
0
5.64
-1.65
-5.78
0.01
2.37
-0.08
-0.69

> <PUBCHEM_SHAPE_SELFOVERLAP>
1265.766

> <PUBCHEM_SHAPE_VOLUME>
298.3

> <PUBCHEM_COORDINATE_TYPE>
2
5
10

$$$$
57510000
  -OEChem-05102415043D

 49 53  0     0  0  0  0  0  0999 V2000
   -1.8444    0.2219   -1.9397 O   0  0  0  0  0  0  0  0  0  0  0  0
    8.4282    1.3993   -0.0914 O   0  0  0  0  0  0  0  0  0  0  0  0
   -3.4916    0.1084   -0.3445 N   0  0  0  0  0  0  0  0  0  0  0  0
   -1.2517    0.2543    0.3177 N   0  0  0  0  0  0  0  0  0  0  0  0
    6.2488    2.1280   -0.0006 N   0  0  0  0  0  0  0  0  0  0  0  0
  -10.6104   -0.3539   -0.6448 N   0  0  0  0  0  0  0  0  0  0  0  0
   -4.5785    0.0394   -1.3307 C   0  0  0  0  0  0  0  0  0  0  0  0
   -4.0018    0.0705    1.0384 C   0  0  0  0  0  0  0  0  0  0  0  0
   -5.8118   -0.0439   -0.4958 C   0  0  0  0  0  0  0  0  0  0  0  0
   -5.4812   -0.0259    0.8645 C   0  0  0  0  0  0  0  0  0  0  0  0
   -7.1289   -0.1287   -0.9107 C   0  0  0  0  0  0  0  0  0  0  0  0
   -6.4603   -0.0923    1.8398 C   0  0  0  0  0  0  0  0  0  0  0  0
   -2.1521    0.1979   -0.7467 C   0  0  0  0  0  0  0  0  0  0  0  0
   -8.1248   -0.1960    0.0663 C   0  0  0  0  0  0  0  0  0  0  0  0
   -7.7930   -0.1780    1.4310 C   0  0  0  0  0  0  0  0  0  0  0  0
    0.1606    0.3477    0.2577 C   0  0  0  0  0  0  0  0  0  0  0  0
    4.3919    0.6261    0.0785 C   0  0  0  0  0  0  0  0  0  0  0  0
    2.9418    0.5306    0.1399 C   0  0  0  0  0  0  0  0  0  0  0  0
    5.3552   -0.5028    0.0379 C   0  0  0  0  0  0  0  0  0  0  0  0
    6.7379   -0.2507   -0.0201 C   0  0  0  0  0  0  0  0  0  0  0  0
    0.9069    0.3936    1.4353 C   0  0  0  0  0  0  0  0  0  0  0  0
    0.8048    0.3933   -0.9786 C   0  0  0  0  0  0  0  0  0  0  0  0
    2.2975    0.4851    1.3763 C   0  0  0  0  0  0  0  0  0  0  0  0
    2.1953    0.4849   -1.0375 C   0  0  0  0  0  0  0  0  0  0  0  0
    4.9042    1.8710    0.0563 C   0  0  0  0  0  0  0  0  0  0  0  0
    4.9201   -1.8363    0.0543 C   0  0  0  0  0  0  0  0  0  0  0  0
    7.2277    1.1513   -0.0411 C   0  0  0  0  0  0  0  0  0  0  0  0
    7.6596   -1.3037   -0.0593 C   0  0  0  0  0  0  0  0  0  0  0  0
   -9.4967   -0.2833   -0.3262 C   0  0  0  0  0  0  0  0  0  0  0  0
    5.8404   -2.8868    0.0153 C   0  0  0  0  0  0  0  0  0  0  0  0
    7.2062   -2.6210   -0.0413 C   0  0  0  0  0  0  0  0  0  0  0  0
   -4.4376   -0.8506   -1.9514 H   0  0  0  0  0  0  0  0  0  0  0  0
   -4.5557    0.9434   -1.9467 H   0  0  0  0  0  0  0  0  0  0  0  0
   -3.5928   -0.8082    1.5458 H   0  0  0  0  0  0  0  0  0  0  0  0
   -3.7108    0.9918    1.5516 H   0  0  0  0  0  0  0  0  0  0  0  0
   -7.3715   -0.1415   -1.9690 H   0  0  0  0  0  0  0  0  0  0  0  0
   -6.2058   -0.0783    2.8939 H   0  0  0  0  0  0  0  0  0  0  0  0
   -8.5723   -0.2306    2.1885 H   0  0  0  0  0  0  0  0  0  0  0  0
   -1.6300    0.2266    1.2593 H   0  0  0  0  0  0  0  0  0  0  0  0
    0.4174    0.3585    2.4052 H   0  0  0  0  0  0  0  0  0  0  0  0
    0.3018    0.3625   -1.9341 H   0  0  0  0  0  0  0  0  0  0  0  0
    2.8648    0.5189    2.3035 H   0  0  0  0  0  0  0  0  0  0  0  0
    2.6836    0.5185   -2.0088 H   0  0  0  0  0  0  0  0  0  0  0  0
    4.2851    2.7622    0.0822 H   0  0  0  0  0  0  0  0  0  0  0  0
    3.8623   -2.0837    0.0980 H   0  0  0  0  0  0  0  0  0  0  0  0
    6.5366    3.1023   -0.0132 H   0  0  0  0  0  0  0  0  0  0  0  0
    8.7291   -1.1176   -0.1041 H   0  0  0  0  0  0  0  0  0  0  0  0
    5.4885   -3.9144    0.0290 H   0  0  0  0  0  0  0  0  0  0  0  0
    7.9180   -3.4407   -0.0716 H   0  0  0  0  0  0  0  0  0  0  0  0
  1 13  2  0  0  0  0
  2 27  2  0  0  0  0
  3  7  1  0  0  0  0
  3  8  1  0  0  0  0
  3 13  1  0  0  0  0
  4 13  1  0  0  0  0
  4 16  1  0  0  0  0
  4 39  1  0  0  0  0
  5 25  1  0  0  0  0
  5 27  1  0  0  0  0
  5 46  1  0  0  0  0
  6 29  3  0  0  0  0
  7  9  1  0  0  0  0
  7 32  1  0  0  0  0
  7 33  1  0  0  0  0
  8 10  1  0  0  0  0
  8 34  1  0  0  0  0
  8 35  1  0  0  0  0
  9 10  2  0  0  0  0
  9 11  1  0  0  0  0
 10 12  1  0  0  0  0
 11 14  2  0  0  0  0
 11 36  1  0  0  0  0
 12 15  2  0  0  0  0
 12 37  1  0  0  0  0
 14 15  1  0  0  0  0
 14 29  1  0  0  0  0
 15 38  1  0  0  0  0
 16 21  2  0  0  0  0
 16 22  1  0  0  0  0
 17 18  1  0  0  0  0
 17 19  1  0  0  0  0
 17 25  2  0  0  0  0
 18 23  2  0  0  0  0
 18 24  1  0  0  0  0
 19 20  1  0  0  0  0
 19 26  2  0  0  0  0
 20 27  1  0  0  0  0
 20 28  2  0  0  0  0
 21 23  1  0  0  0  0
 21 40  1  0  0  0  0
 22 24  2  0  0  0  0
 22 41  1  0  0  0  0
 23 42  1  0  0  0  0
 24 43  1  0  0  0  0
 25 44  1  0  0  0  0
 26 30  1  0  0  0  0
 26 45  1  0  0  0  0
 28 31  1  0  0  0  0
 28 47  1  0  0  0  0
 30 31  2  0  0  0  0
 30 48  1  0  0  0  0
 31 49  1  0  0  0  0
M  END
> <PUBCHEM_COMPOUND_CID>
57510000

> <PUBCHEM_CONFORMER_RMSD>
0.8

> <PUBCHEM_CONFORMER_DIVERSEORDER>
1
41
19
48
30
15
47
42
7
28
58
9
60
52
13
37
27
12
38
51
56
57
59
21
45
40
54
11
34
36
50
20
49
31
39
10
16
33
2
8
35
46
25
32
14
44
55
17
43
4
22
53
5
18
29
3
6
26
24
23

> <PUBCHEM_MMFF94_PARTIAL_CHARGES>
45
1 -0.57
10 -0.14
11 -0.15
12 -0.15
13 0.69
14 0.07
15 -0.15
16 0.12
17 -0.06
18 0.03
19 0.03
2 -0.57
20 0.09
21 -0.15
22 -0.15
23 -0.15
24 -0.15
25 -0.04
26 -0.15
27 0.54
28 -0.15
29 0.48
3 -0.66
30 -0.15
31 -0.15
36 0.15
37 0.15
38 0.15
39 0.37
4 -0.55
40 0.15
41 0.15
42 0.15
43 0.15
44 0.15
45 0.15
46 0.37
47 0.15
48 0.15
49 0.15
5 -0.54
6 -0.56
7 0.44
8 0.44
9 -0.14

> <PUBCHEM_EFFECTIVE_ROTOR_COUNT>
4.6

> <PUBCHEM_PHARMACOPHORE_FEATURES>
10
1 1 acceptor
1 2 acceptor
1 4 donor
1 5 donor
1 6 acceptor
5 3 7 8 9 10 rings
6 16 18 21 22 23 24 rings
6 19 20 26 28 30 31 rings
6 5 17 19 20 25 27 rings
6 9 10 11 12 14 15 rings

> <PUBCHEM_HEAVY_ATOM_COUNT>
31

> <PUBCHEM_ATOM_DEF_STEREO_COUNT>
0

> <PUBCHEM_ATOM_UDEF_STEREO_COUNT>
0

> <PUBCHEM_BOND_DEF_STEREO_COUNT>
0

> <PUBCHEM_BOND_UDEF_STEREO_COUNT>
0

> <PUBCHEM_ISOTOPIC_ATOM_COUNT>
0

> <PUBCHEM_COMPONENT_COUNT>
1

> <PUBCHEM_CACTVS_TAUTO_COUNT>
4

> <PUBCHEM_CONFORMER_ID>
036D887000000001

> <PUBCHEM_MMFF94_ENERGY>
96.7891

> <PUBCHEM_FEATURE_SELFOVERLAP>
50.855

> <PUBCHEM_SHAPE_FINGERPRINT>
10 15 16917067771963027235
10299344 5 17989205953674164015
11719270 70 14779258713912500528
12082328 90 18409727336335959149
12089408 11 17846781806672569505
12133447 93 16515679984360889583
12144603 126 17560799966149166816
13533116 47 18343300350065331258
13560911 43 16989128664878711475
13617811 41 15719393911102836558
13685833 64 18333734594118270990
14028597 1 17417817179833088115
14117953 113 16588024619880067943
14118638 360 18410859828843683728
14251764 18 17561363980694989865
14251764 46 18411981372930650732
14294032 229 14852157352556559039
150020 25 17749109971867636787
15065858 18 18260545633160076711
15131766 46 17841421841337091497
15152005 1 17696196899118031222
15183329 4 17132116857213975801
15198563 99 17677049027702913189
15247644 1 18413389830658685631
15301273 46 17894911819654882245
15328684 2 17274268223171260811
15352257 5 18333734623671937122
15392192 104 17346601893263866774
15419008 47 17676200286267481341
15419008 91 17313370266800810661
15510794 2 18040154028713982347
1577012 14 17632856438398627980
15849732 13 17749110006179746471
16120349 18 18412824711534912552
19301679 30 17416693445275135814
19315958 150 18261397779998399138
20105231 36 17312828164998250611
20554085 129 14836122139691668310
20771845 140 16630238113918391894
20771845 171 17489602168908750084
21150785 3 12612756817439127807
21267235 1 16443071603933056805
21315759 40 18131351925484145005
21344244 181 18113903728414228162
21362267 20 18341048627873820199
21362267 313 17559966433139793179
22956985 138 16484182189330247630
232437 2 18343863334552765591
23516275 137 18058752224532532702
23522609 53 17702402786592203960
23576562 1 13985535606258529758
24893992 56 16128367212846798303
249057 3 16226050016038174015
2835820 82 18269558230931324486
335352 9 15913329125915409409
34797466 226 17676207992123825932
4017518 198 18040155120274817675
4073 2 18128530664425383146
439807 62 18273213092968545024
45377200 153 18187648068058201891
4625314 4 18187645843163855943
5219985 9 17561082505602852689
59520647 119 18337109072672408035
6691757 9 16702307884615657343
67123 10 18411418432337147981
9663363 56 17385438839027990181

> <PUBCHEM_SHAPE_MULTIPOLES>
606.3
32.93
1.69
1.28
39.22
0.88
0.13
6.38
-0.15
-6.36
0.01
2.14
-0.08
-0.03

> <PUBCHEM_SHAPE_SELFOVERLAP>
1357.143

> <PUBCHEM_SHAPE_VOLUME>
318

> <PUBCHEM_COORDINATE_TYPE>
2
5
10

$$$$
57510005
  -OEChem-05102415043D

 59 63  0     0  0  0  0  0  0999 V2000
   -1.0566    1.8045    1.6469 O   0  0  0  0  0  0  0  0  0  0  0  0
    8.9304   -1.3635    0.9003 O   0  0  0  0  0  0  0  0  0  0  0  0
   -2.8523    0.8459    0.5850 N   0  0  0  0  0  0  0  0  0  0  0  0
   -9.2410   -1.3626   -0.4073 N   0  0  0  0  0  0  0  0  0  0  0  0
   -0.6973    0.0338    0.1690 N   0  0  0  0  0  0  0  0  0  0  0  0
    6.7298   -1.6955    1.4801 N   0  0  0  0  0  0  0  0  0  0  0  0
   -4.9484    0.2241   -0.2258 C   0  0  0  0  0  0  0  0  0  0  0  0
   -3.4984   -0.1144   -0.3287 C   0  0  0  0  0  0  0  0  0  0  0  0
   -5.1388    1.2869    0.6653 C   0  0  0  0  0  0  0  0  0  0  0  0
   -3.8308    1.7368    1.2236 C   0  0  0  0  0  0  0  0  0  0  0  0
   -6.0186   -0.3669   -0.8738 C   0  0  0  0  0  0  0  0  0  0  0  0
   -7.2995    0.1262   -0.6154 C   0  0  0  0  0  0  0  0  0  0  0  0
   -6.4036    1.7823    0.9279 C   0  0  0  0  0  0  0  0  0  0  0  0
   -7.4906    1.1926    0.2784 C   0  0  0  0  0  0  0  0  0  0  0  0
   -1.4827    0.9567    0.8607 C   0  0  0  0  0  0  0  0  0  0  0  0
   -8.4786   -0.4850   -1.2963 C   0  0  0  0  0  0  0  0  0  0  0  0
    0.7099   -0.1214    0.2204 C   0  0  0  0  0  0  0  0  0  0  0  0
    3.4810   -0.4268    0.3206 C   0  0  0  0  0  0  0  0  0  0  0  0
    4.9258   -0.5860    0.3730 C   0  0  0  0  0  0  0  0  0  0  0  0
   -8.5924   -2.6686   -0.3005 C   0  0  0  0  0  0  0  0  0  0  0  0
  -10.6132   -1.5104   -0.8900 C   0  0  0  0  0  0  0  0  0  0  0  0
    5.9257    0.0907   -0.4909 C   0  0  0  0  0  0  0  0  0  0  0  0
    1.3313   -1.1056   -0.5484 C   0  0  0  0  0  0  0  0  0  0  0  0
    1.4740    0.7100    1.0393 C   0  0  0  0  0  0  0  0  0  0  0  0
    2.7167   -1.2584   -0.4982 C   0  0  0  0  0  0  0  0  0  0  0  0
    2.8595    0.5572    1.0894 C   0  0  0  0  0  0  0  0  0  0  0  0
    7.2979   -0.1674   -0.3200 C   0  0  0  0  0  0  0  0  0  0  0  0
    5.3956   -1.4372    1.3045 C   0  0  0  0  0  0  0  0  0  0  0  0
    5.5361    0.9965   -1.4887 C   0  0  0  0  0  0  0  0  0  0  0  0
    7.7400   -1.1202    0.7300 C   0  0  0  0  0  0  0  0  0  0  0  0
    8.2537    0.4626   -1.1259 C   0  0  0  0  0  0  0  0  0  0  0  0
    6.4904    1.6249   -2.2928 C   0  0  0  0  0  0  0  0  0  0  0  0
    7.8453    1.3584   -2.1118 C   0  0  0  0  0  0  0  0  0  0  0  0
   -3.1139    0.0421   -1.3409 H   0  0  0  0  0  0  0  0  0  0  0  0
   -3.2916   -1.1313    0.0176 H   0  0  0  0  0  0  0  0  0  0  0  0
   -3.5982    2.7709    0.9521 H   0  0  0  0  0  0  0  0  0  0  0  0
   -3.7757    1.6039    2.3084 H   0  0  0  0  0  0  0  0  0  0  0  0
   -5.8583   -1.1906   -1.5620 H   0  0  0  0  0  0  0  0  0  0  0  0
   -6.5531    2.6055    1.6180 H   0  0  0  0  0  0  0  0  0  0  0  0
   -8.4908    1.5717    0.4749 H   0  0  0  0  0  0  0  0  0  0  0  0
   -9.1089    0.3500   -1.6354 H   0  0  0  0  0  0  0  0  0  0  0  0
   -8.1823   -1.0016   -2.2200 H   0  0  0  0  0  0  0  0  0  0  0  0
   -1.1680   -0.6156   -0.4533 H   0  0  0  0  0  0  0  0  0  0  0  0
   -7.5963   -2.5868    0.1462 H   0  0  0  0  0  0  0  0  0  0  0  0
   -8.4989   -3.1691   -1.2714 H   0  0  0  0  0  0  0  0  0  0  0  0
   -9.1666   -3.3250    0.3637 H   0  0  0  0  0  0  0  0  0  0  0  0
  -11.1232   -0.5408   -0.9102 H   0  0  0  0  0  0  0  0  0  0  0  0
  -11.1921   -2.1511   -0.2154 H   0  0  0  0  0  0  0  0  0  0  0  0
  -10.6531   -1.9441   -1.8959 H   0  0  0  0  0  0  0  0  0  0  0  0
    0.7475   -1.7599   -1.1909 H   0  0  0  0  0  0  0  0  0  0  0  0
    1.0715    1.4940    1.6640 H   0  0  0  0  0  0  0  0  0  0  0  0
    3.1858   -2.0297   -1.1044 H   0  0  0  0  0  0  0  0  0  0  0  0
    3.4421    1.2135    1.7318 H   0  0  0  0  0  0  0  0  0  0  0  0
    4.7474   -1.9807    1.9847 H   0  0  0  0  0  0  0  0  0  0  0  0
    4.4882    1.2302   -1.6602 H   0  0  0  0  0  0  0  0  0  0  0  0
    6.9844   -2.3539    2.2106 H   0  0  0  0  0  0  0  0  0  0  0  0
    9.3153    0.2688   -1.0005 H   0  0  0  0  0  0  0  0  0  0  0  0
    6.1737    2.3238   -3.0617 H   0  0  0  0  0  0  0  0  0  0  0  0
    8.5836    1.8493   -2.7391 H   0  0  0  0  0  0  0  0  0  0  0  0
  1 15  2  0  0  0  0
  2 30  2  0  0  0  0
  3  8  1  0  0  0  0
  3 10  1  0  0  0  0
  3 15  1  0  0  0  0
  4 16  1  0  0  0  0
  4 20  1  0  0  0  0
  4 21  1  0  0  0  0
  5 15  1  0  0  0  0
  5 17  1  0  0  0  0
  5 43  1  0  0  0  0
  6 28  1  0  0  0  0
  6 30  1  0  0  0  0
  6 56  1  0  0  0  0
  7  8  1  0  0  0  0
  7  9  2  0  0  0  0
  7 11  1  0  0  0  0
  8 34  1  0  0  0  0
  8 35  1  0  0  0  0
  9 10  1  0  0  0  0
  9 13  1  0  0  0  0
 10 36  1  0  0  0  0
 10 37  1  0  0  0  0
 11 12  2  0  0  0  0
 11 38  1  0  0  0  0
 12 14  1  0  0  0  0
 12 16  1  0  0  0  0
 13 14  2  0  0  0  0
 13 39  1  0  0  0  0
 14 40  1  0  0  0  0
 16 41  1  0  0  0  0
 16 42  1  0  0  0  0
 17 23  2  0  0  0  0
 17 24  1  0  0  0  0
 18 19  1  0  0  0  0
 18 25  2  0  0  0  0
 18 26  1  0  0  0  0
 19 22  1  0  0  0  0
 19 28  2  0  0  0  0
 20 44  1  0  0  0  0
 20 45  1  0  0  0  0
 20 46  1  0  0  0  0
 21 47  1  0  0  0  0
 21 48  1  0  0  0  0
 21 49  1  0  0  0  0
 22 27  1  0  0  0  0
 22 29  2  0  0  0  0
 23 25  1  0  0  0  0
 23 50  1  0  0  0  0
 24 26  2  0  0  0  0
 24 51  1  0  0  0  0
 25 52  1  0  0  0  0
 26 53  1  0  0  0  0
 27 30  1  0  0  0  0
 27 31  2  0  0  0  0
 28 54  1  0  0  0  0
 29 32  1  0  0  0  0
 29 55  1  0  0  0  0
 31 33  1  0  0  0  0
 31 57  1  0  0  0  0
 32 33  2  0  0  0  0
 32 58  1  0  0  0  0
 33 59  1  0  0  0  0
M  END
> <PUBCHEM_COMPOUND_CID>
57510005

> <PUBCHEM_CONFORMER_RMSD>
1

> <PUBCHEM_CONFORMER_DIVERSEORDER>
2
59
75
57
76
25
30
10
66
39
15
62
55
18
77
50
47
12
44
65
28
32
74
13
69
58
29
33
24
68
35
73
79
46
26
21
64
71
54
17
56
63
40
3
67
72
41
45
23
38
48
4
42
60
37
5
53
19
9
31
1
78
11
70
27
43
49
36
61
16
52
80
51
7
22
34
20
6
14
8

> <PUBCHEM_MMFF94_PARTIAL_CHARGES>
47
1 -0.57
10 0.44
11 -0.15
12 -0.14
13 -0.15
14 -0.15
15 0.69
16 0.41
17 0.12
18 0.03
19 -0.06
2 -0.57
20 0.27
21 0.27
22 0.03
23 -0.15
24 -0.15
25 -0.15
26 -0.15
27 0.09
28 -0.04
29 -0.15
3 -0.66
30 0.54
31 -0.15
32 -0.15
33 -0.15
38 0.15
39 0.15
4 -0.81
40 0.15
43 0.37
5 -0.55
50 0.15
51 0.15
52 0.15
53 0.15
54 0.15
55 0.15
56 0.37
57 0.15
58 0.15
59 0.15
6 -0.54
7 -0.14
8 0.44
9 -0.14

> <PUBCHEM_EFFECTIVE_ROTOR_COUNT>
6.6

> <PUBCHEM_PHARMACOPHORE_FEATURES>
10
1 1 acceptor
1 2 acceptor
1 4 cation
1 5 donor
1 6 donor
5 3 7 8 9 10 rings
6 17 18 23 24 25 26 rings
6 22 27 29 31 32 33 rings
6 6 19 22 27 28 30 rings
6 7 9 11 12 13 14 rings

> <PUBCHEM_HEAVY_ATOM_COUNT>
33

> <PUBCHEM_ATOM_DEF_STEREO_COUNT>
0

> <PUBCHEM_ATOM_UDEF_STEREO_COUNT>
0

> <PUBCHEM_BOND_DEF_STEREO_COUNT>
0

> <PUBCHEM_BOND_UDEF_STEREO_COUNT>
0

> <PUBCHEM_ISOTOPIC_ATOM_COUNT>
0

> <PUBCHEM_COMPONENT_COUNT>
1

> <PUBCHEM_CACTVS_TAUTO_COUNT>
4

> <PUBCHEM_CONFORMER_ID>
036D887500000002

> <PUBCHEM_MMFF94_ENERGY>
108.6876

> <PUBCHEM_FEATURE_SELFOVERLAP>
50.854

> <PUBCHEM_SHAPE_FINGERPRINT>
10162869 55 18187080659753691714
10299344 5 18410012117582626977
11135609 127 18041564754363441476
11181472 205 17387402438094144853
11315181 36 18040721373030662785
11409948 35 13479398433380111520
11607047 141 10809334548371331964
12089408 11 18410576167016157529
12133447 93 17274271543165057913
12144603 126 18261394400344771881
12522641 24 14707197830826785944
13617811 41 17846786196250893924
13673619 4 17489866047140737145
14068700 675 18272934907853491792
14118638 360 17632017447166842015
14251764 18 18410856542517994856
14294032 229 17986126110469442768
14359421 15 14476145315031355276
14429380 56 17675927608105712188
14444916 359 15770063835069341405
150020 25 16008751303124887117
15131766 46 17533511277470168212
15183329 4 18342465828850242448
15289351 153 15213288712879563052
15301273 46 15482671251827619808
15419008 47 16056589920367836840
15419008 91 16414619472299895480
15461852 350 18411420609896084101
15510794 2 15554445176160535781
15554971 5 18186803556426298177
15840311 113 17385444336992356870
15979999 66 18334574664063381149
16120349 18 17676488354724858932
16728433 110 18343013419900321912
1754911 235 16732698355477988119
17852330 162 17750804435619064163
1818759 1 17775288283479730975
18335252 114 17603305964608263428
20105231 36 16630530630537803383
20157964 124 17676212356205918960
2026 5 15122684501196777076
21150785 3 18334579048685958269
21267235 1 17632577167494592057
21362857 166 18201447926744333686
21781051 124 17917715737674871286
21867018 265 17895190048343764335
21927370 108 16487263175440063793
22164985 6 18336539500078623079
23522609 53 18195834910693884488
23569917 315 17987805090853608550
23569943 247 15910263524926808110
23576562 1 18198065974621216260
23729398 52 18127691746108646825
255183 451 17974290920844058402
2747138 104 16774078466666990385
306946 40 15357693136468171868
3092352 35 18408322185918742326
335507 130 17132110256102754877
3383291 50 17203607108264792479
395649 100 17749393715521094403
44880568 143 17896316913948212813
4760202 170 16443345403059516021
4874694 18 17458063777214014962
54039377 194 18201156650994897287
58083652 198 17313109640080851836
6057620 51 18334295357891043513
636775 8 18343023337734136799

> <PUBCHEM_SHAPE_MULTIPOLES>
647.46
36.35
1.9
1.58
30.68
0.32
-0.37
11.15
-11.71
1.74
0.17
-2.35
-0.52
-4.94

> <PUBCHEM_SHAPE_SELFOVERLAP>
1428.78

> <PUBCHEM_SHAPE_VOLUME>
348.7

> <PUBCHEM_COORDINATE_TYPE>
2
5
10

$$$$
57509997
  -OEChem-05102415043D

 64 69  0     0  0  0  0  0  0999 V2000
   10.4821    2.4214   -0.3060 O   0  0  0  0  0  0  0  0  0  0  0  0
    0.2840   -0.3303   -1.9491 O   0  0  0  0  0  0  0  0  0  0  0  0
  -10.0874   -0.7623   -0.3435 O   0  0  0  0  0  0  0  0  0  0  0  0
    8.6463    0.2868    0.1126 N   0  0  0  0  0  0  0  0  0  0  0  0
    1.9045   -0.6990   -0.3650 N   0  0  0  0  0  0  0  0  0  0  0  0
   -0.3503   -0.7348    0.2607 N   0  0  0  0  0  0  0  0  0  0  0  0
   -7.9966   -1.7188   -0.3980 N   0  0  0  0  0  0  0  0  0  0  0  0
    4.2305   -0.7632   -0.4879 C   0  0  0  0  0  0  0  0  0  0  0  0
    3.8747   -1.0091    0.8436 C   0  0  0  0  0  0  0  0  0  0  0  0
    3.0110   -0.5541   -1.3210 C   0  0  0  0  0  0  0  0  0  0  0  0
    2.3904   -0.9818    0.9984 C   0  0  0  0  0  0  0  0  0  0  0  0
    7.9776   -0.9462   -0.2972 C   0  0  0  0  0  0  0  0  0  0  0  0
    6.5360   -0.9652    0.0889 C   0  0  0  0  0  0  0  0  0  0  0  0
    5.5568   -0.7383   -0.8809 C   0  0  0  0  0  0  0  0  0  0  0  0
   10.0980    0.0836    0.2161 C   0  0  0  0  0  0  0  0  0  0  0  0
    8.3564    1.3759   -0.8305 C   0  0  0  0  0  0  0  0  0  0  0  0
    4.8371   -1.2353    1.8114 C   0  0  0  0  0  0  0  0  0  0  0  0
    6.1789   -1.2119    1.4247 C   0  0  0  0  0  0  0  0  0  0  0  0
   10.7745    1.3863    0.6333 C   0  0  0  0  0  0  0  0  0  0  0  0
    9.0745    2.6481   -0.3895 C   0  0  0  0  0  0  0  0  0  0  0  0
    0.5706   -0.5690   -0.7745 C   0  0  0  0  0  0  0  0  0  0  0  0
   -1.7633   -0.6669    0.1863 C   0  0  0  0  0  0  0  0  0  0  0  0
   -4.5459   -0.5322    0.0405 C   0  0  0  0  0  0  0  0  0  0  0  0
   -5.9968   -0.4620   -0.0357 C   0  0  0  0  0  0  0  0  0  0  0  0
   -2.5319   -0.8583    1.3345 C   0  0  0  0  0  0  0  0  0  0  0  0
   -2.3859   -0.4081   -1.0348 C   0  0  0  0  0  0  0  0  0  0  0  0
   -6.8378    0.7483    0.1425 C   0  0  0  0  0  0  0  0  0  0  0  0
   -3.9231   -0.7910    1.2616 C   0  0  0  0  0  0  0  0  0  0  0  0
   -3.7772   -0.3409   -1.1077 C   0  0  0  0  0  0  0  0  0  0  0  0
   -8.2378    0.6579    0.0397 C   0  0  0  0  0  0  0  0  0  0  0  0
   -6.6340   -1.6194   -0.2951 C   0  0  0  0  0  0  0  0  0  0  0  0
   -6.2681    2.0012    0.4135 C   0  0  0  0  0  0  0  0  0  0  0  0
   -8.8689   -0.6553   -0.2487 C   0  0  0  0  0  0  0  0  0  0  0  0
   -9.0453    1.7895    0.2047 C   0  0  0  0  0  0  0  0  0  0  0  0
   -7.0744    3.1302    0.5782 C   0  0  0  0  0  0  0  0  0  0  0  0
   -8.4592    3.0243    0.4741 C   0  0  0  0  0  0  0  0  0  0  0  0
    2.9068   -1.3141   -2.1012 H   0  0  0  0  0  0  0  0  0  0  0  0
    2.9739    0.4492   -1.7562 H   0  0  0  0  0  0  0  0  0  0  0  0
    1.9965   -1.9491    1.3241 H   0  0  0  0  0  0  0  0  0  0  0  0
    2.0648   -0.1794    1.6669 H   0  0  0  0  0  0  0  0  0  0  0  0
    8.4436   -1.8108    0.1974 H   0  0  0  0  0  0  0  0  0  0  0  0
    8.1050   -1.1396   -1.3714 H   0  0  0  0  0  0  0  0  0  0  0  0
    5.8204   -0.5464   -1.9160 H   0  0  0  0  0  0  0  0  0  0  0  0
   10.5043   -0.2480   -0.7484 H   0  0  0  0  0  0  0  0  0  0  0  0
   10.3247   -0.6849    0.9640 H   0  0  0  0  0  0  0  0  0  0  0  0
    7.2830    1.5887   -0.8707 H   0  0  0  0  0  0  0  0  0  0  0  0
    8.6886    1.1055   -1.8414 H   0  0  0  0  0  0  0  0  0  0  0  0
    4.5631   -1.4259    2.8432 H   0  0  0  0  0  0  0  0  0  0  0  0
    6.9467   -1.3878    2.1745 H   0  0  0  0  0  0  0  0  0  0  0  0
   11.8608    1.2523    0.6531 H   0  0  0  0  0  0  0  0  0  0  0  0
   10.4610    1.7022    1.6358 H   0  0  0  0  0  0  0  0  0  0  0  0
    8.7034    3.0076    0.5781 H   0  0  0  0  0  0  0  0  0  0  0  0
    8.9090    3.4432   -1.1236 H   0  0  0  0  0  0  0  0  0  0  0  0
    0.0116   -0.9278    1.1893 H   0  0  0  0  0  0  0  0  0  0  0  0
   -2.0592   -1.0603    2.2923 H   0  0  0  0  0  0  0  0  0  0  0  0
   -1.8650   -0.2487   -1.9676 H   0  0  0  0  0  0  0  0  0  0  0  0
   -4.5078   -0.9414    2.1661 H   0  0  0  0  0  0  0  0  0  0  0  0
   -4.2485   -0.1374   -2.0666 H   0  0  0  0  0  0  0  0  0  0  0  0
   -6.1104   -2.5589   -0.4416 H   0  0  0  0  0  0  0  0  0  0  0  0
   -5.1915    2.1238    0.5020 H   0  0  0  0  0  0  0  0  0  0  0  0
   -8.3829   -2.6372   -0.5965 H   0  0  0  0  0  0  0  0  0  0  0  0
  -10.1273    1.7282    0.1269 H   0  0  0  0  0  0  0  0  0  0  0  0
   -6.6190    4.0938    0.7881 H   0  0  0  0  0  0  0  0  0  0  0  0
   -9.0821    3.9047    0.6028 H   0  0  0  0  0  0  0  0  0  0  0  0
  1 19  1  0  0  0  0
  1 20  1  0  0  0  0
  2 21  2  0  0  0  0
  3 33  2  0  0  0  0
  4 12  1  0  0  0  0
  4 15  1  0  0  0  0
  4 16  1  0  0  0  0
  5 10  1  0  0  0  0
  5 11  1  0  0  0  0
  5 21  1  0  0  0  0
  6 21  1  0  0  0  0
  6 22  1  0  0  0  0
  6 54  1  0  0  0  0
  7 31  1  0  0  0  0
  7 33  1  0  0  0  0
  7 61  1  0  0  0  0
  8  9  2  0  0  0  0
  8 10  1  0  0  0  0
  8 14  1  0  0  0  0
  9 11  1  0  0  0  0
  9 17  1  0  0  0  0
 10 37  1  0  0  0  0
 10 38  1  0  0  0  0
 11 39  1  0  0  0  0
 11 40  1  0  0  0  0
 12 13  1  0  0  0  0
 12 41  1  0  0  0  0
 12 42  1  0  0  0  0
 13 14  2  0  0  0  0
 13 18  1  0  0  0  0
 14 43  1  0  0  0  0
 15 19  1  0  0  0  0
 15 44  1  0  0  0  0
 15 45  1  0  0  0  0
 16 20  1  0  0  0  0
 16 46  1  0  0  0  0
 16 47  1  0  0  0  0
 17 18  2  0  0  0  0
 17 48  1  0  0  0  0
 18 49  1  0  0  0  0
 19 50  1  0  0  0  0
 19 51  1  0  0  0  0
 20 52  1  0  0  0  0
 20 53  1  0  0  0  0
 22 25  2  0  0  0  0
 22 26  1  0  0  0  0
 23 24  1  0  0  0  0
 23 28  2  0  0  0  0
 23 29  1  0  0  0  0
 24 27  1  0  0  0  0
 24 31  2  0  0  0  0
 25 28  1  0  0  0  0
 25 55  1  0  0  0  0
 26 29  2  0  0  0  0
 26 56  1  0  0  0  0
 27 30  1  0  0  0  0
 27 32  2  0  0  0  0
 28 57  1  0  0  0  0
 29 58  1  0  0  0  0
 30 33  1  0  0  0  0
 30 34  2  0  0  0  0
 31 59  1  0  0  0  0
 32 35  1  0  0  0  0
 32 60  1  0  0  0  0
 34 36  1  0  0  0  0
 34 62  1  0  0  0  0
 35 36  2  0  0  0  0
 35 63  1  0  0  0  0
 36 64  1  0  0  0  0
M  END
> <PUBCHEM_COMPOUND_CID>
57509997

> <PUBCHEM_CONFORMER_RMSD>
1

> <PUBCHEM_CONFORMER_DIVERSEORDER>
1
157
46
99
18
115
62
72
83
130
117
33
108
10
78
92
34
101
4
132
61
148
126
93
7
159
104
133
121
136
143
86
71
80
118
97
32
85
129
53
66
30
105
20
109
155
58
146
82
154
45
81
110
11
131
60
144
19
28
150
2
84
89
43
140
70
127
48
98
134
24
68
147
153
50
106
41
21
94
100
17
54
141
77
26
137
128
125
76
49
9
27
42
95
88
65
55
14
56
123
139
39
103
5
59
87
35
16
79
145
124
152
112
67
73
122
38
3
96
12
37
113
75
149
158
91
142
69
107
47
114
40
29
22
90
13
120
135
63
23
156
102
25
64
116
31
15
52
111
57
36
151
8
119
44
51
6
138
74

> <PUBCHEM_MMFF94_PARTIAL_CHARGES>
50
1 -0.56
10 0.44
11 0.44
12 0.41
13 -0.14
14 -0.15
15 0.27
16 0.27
17 -0.15
18 -0.15
19 0.28
2 -0.57
20 0.28
21 0.69
22 0.12
23 0.03
24 -0.06
25 -0.15
26 -0.15
27 0.03
28 -0.15
29 -0.15
3 -0.57
30 0.09
31 -0.04
32 -0.15
33 0.54
34 -0.15
35 -0.15
36 -0.15
4 -0.81
43 0.15
48 0.15
49 0.15
5 -0.66
54 0.37
55 0.15
56 0.15
57 0.15
58 0.15
59 0.15
6 -0.55
60 0.15
61 0.37
62 0.15
63 0.15
64 0.15
7 -0.54
8 -0.14
9 -0.14

> <PUBCHEM_EFFECTIVE_ROTOR_COUNT>
7.8

> <PUBCHEM_PHARMACOPHORE_FEATURES>
12
1 1 acceptor
1 2 acceptor
1 3 acceptor
1 4 cation
1 6 donor
1 7 donor
5 5 8 9 10 11 rings
6 1 4 15 16 19 20 rings
6 22 23 25 26 28 29 rings
6 27 30 32 34 35 36 rings
6 7 24 27 30 31 33 rings
6 8 9 13 14 17 18 rings

> <PUBCHEM_HEAVY_ATOM_COUNT>
36

> <PUBCHEM_ATOM_DEF_STEREO_COUNT>
0

> <PUBCHEM_ATOM_UDEF_STEREO_COUNT>
0

> <PUBCHEM_BOND_DEF_STEREO_COUNT>
0

> <PUBCHEM_BOND_UDEF_STEREO_COUNT>
0

> <PUBCHEM_ISOTOPIC_ATOM_COUNT>
0

> <PUBCHEM_COMPONENT_COUNT>
1

> <PUBCHEM_CACTVS_TAUTO_COUNT>
4

> <PUBCHEM_CONFORMER_ID>
036D886D00000001

> <PUBCHEM_MMFF94_ENERGY>
110.4708

> <PUBCHEM_FEATURE_SELFOVERLAP>
61.006

> <PUBCHEM_SHAPE_FINGERPRINT>
10299344 5 18040152894995726755
10580692 12 18342738512339887687
11061554 47 18187081750528257492
11181472 205 18198347260597753490
11386260 185 14548726327736854202
11578821 258 18343585157436660064
11607047 141 18263361392640949050
11973864 220 18129951066040971441
12013929 94 18337954601757132435
12082328 90 18341892957991736215
12089408 11 18409165489318844258
12144603 126 18408319999563831346
12559415 90 18341610404777657120
12664476 115 18187359948418462668
12758862 56 12468640559905697556
12838862 33 16081359782548106819
13150687 139 14117796921041712684
13383668 254 18335998535345937625
13553643 46 17749106703946645172
14117953 113 15985099708779398816
14118638 360 15625951888955691302
14251764 18 17822013082316428835
14251764 46 18334857220775062246
14428016 248 18410855464697624092
14617042 71 18114749334940290716
15061470 23 18411134731876599797
15065858 18 18411419505536270254
15183329 4 17458063751402031899
15198563 99 15339130005011637858
15247644 1 8862937282391427305
15328684 2 18043802096815886873
15419008 47 17489298656317745769
15461852 350 18344146990929874243
15510794 2 18130510751707717246
15530121 191 17918266567489677232
15604295 49 18412261757382047656
15664458 105 15574712504883177740
15840311 113 18333454258046216806
16728433 281 17487628424508207585
17686467 74 18260831527336634865
1818759 1 8790886272680067664
19315958 150 18409170983252383498
20105231 36 11095893657953044968
212700 22 12035447229142713625
21362267 313 18266173942867374266
21792934 111 16805601499964694574
24771293 8 18187085052793183295
249057 3 15338832084352078142
3092352 35 18412259537195003606
335352 9 14620793812978903554
4149490 64 11169917191281131880
44280117 145 18338799047866610871
44426699 302 12757734070620360398
44802255 64 17489582326402058911
45270241 37 18271811199460820174
54039377 194 10087922973693872338
6081469 158 16917067725034969706
6126387 218 18334014994809689297
636775 72 18410014295791189049
6691757 9 18187375316354773859
67123 10 18411981373178713566
9663363 56 15574709201947669735
9937071 3 13623524650578373016

> <PUBCHEM_SHAPE_MULTIPOLES>
703.33
43.26
2.35
1.23
31.82
2.45
0.07
23.64
1.32
-1.63
0.31
0.92
-0.32
-2.1

> <PUBCHEM_SHAPE_SELFOVERLAP>
1555.91

> <PUBCHEM_SHAPE_VOLUME>
375.5

> <PUBCHEM_COORDINATE_TYPE>
2
5
10

$$$$
57509992
  -OEChem-05102415043D

 48 52  0     0  0  0  0  0  0999 V2000
   -2.5121    0.2408   -2.0011 O   0  0  0  0  0  0  0  0  0  0  0  0
    7.7233    1.4466    0.0279 O   0  0  0  0  0  0  0  0  0  0  0  0
   -4.1799    0.0629   -0.4332 N   0  0  0  0  0  0  0  0  0  0  0  0
   -1.9508    0.2067    0.2645 N   0  0  0  0  0  0  0  0  0  0  0  0
    5.5364    2.1535    0.1118 N   0  0  0  0  0  0  0  0  0  0  0  0
   -5.2527    0.0163   -1.4364 C   0  0  0  0  0  0  0  0  0  0  0  0
   -4.7088   -0.0232    0.9405 C   0  0  0  0  0  0  0  0  0  0  0  0
   -6.4964   -0.1048   -0.6218 C   0  0  0  0  0  0  0  0  0  0  0  0
   -6.1847   -0.1272    0.7427 C   0  0  0  0  0  0  0  0  0  0  0  0
   -7.8069   -0.1878   -1.0576 C   0  0  0  0  0  0  0  0  0  0  0  0
   -7.1766   -0.2333    1.7017 C   0  0  0  0  0  0  0  0  0  0  0  0
   -2.8358    0.1765   -0.8137 C   0  0  0  0  0  0  0  0  0  0  0  0
   -8.8155   -0.2952   -0.0974 C   0  0  0  0  0  0  0  0  0  0  0  0
   -8.5027   -0.3177    1.2717 C   0  0  0  0  0  0  0  0  0  0  0  0
    3.6920    0.6341    0.1162 C   0  0  0  0  0  0  0  0  0  0  0  0
   -0.5386    0.3140    0.2272 C   0  0  0  0  0  0  0  0  0  0  0  0
    2.2421    0.5243    0.1543 C   0  0  0  0  0  0  0  0  0  0  0  0
    4.6659   -0.4847    0.0524 C   0  0  0  0  0  0  0  0  0  0  0  0
    6.0469   -0.2192    0.0219 C   0  0  0  0  0  0  0  0  0  0  0  0
    0.1911    0.3279    1.4160 C   0  0  0  0  0  0  0  0  0  0  0  0
    0.1220    0.4054   -0.9979 C   0  0  0  0  0  0  0  0  0  0  0  0
    1.5815    0.4330    1.3795 C   0  0  0  0  0  0  0  0  0  0  0  0
    1.5123    0.5107   -1.0343 C   0  0  0  0  0  0  0  0  0  0  0  0
    4.1935    1.8834    0.1417 C   0  0  0  0  0  0  0  0  0  0  0  0
    4.2425   -1.8217    0.0194 C   0  0  0  0  0  0  0  0  0  0  0  0
    6.5244    1.1869    0.0533 C   0  0  0  0  0  0  0  0  0  0  0  0
    6.9784   -1.2624   -0.0387 C   0  0  0  0  0  0  0  0  0  0  0  0
    5.1725   -2.8625   -0.0409 C   0  0  0  0  0  0  0  0  0  0  0  0
    6.5366   -2.5834   -0.0697 C   0  0  0  0  0  0  0  0  0  0  0  0
   -5.0951   -0.8520   -2.0834 H   0  0  0  0  0  0  0  0  0  0  0  0
   -5.2297    0.9399   -2.0226 H   0  0  0  0  0  0  0  0  0  0  0  0
   -4.4335    0.8840    1.4864 H   0  0  0  0  0  0  0  0  0  0  0  0
   -4.2987   -0.9138    1.4258 H   0  0  0  0  0  0  0  0  0  0  0  0
   -8.0503   -0.1704   -2.1144 H   0  0  0  0  0  0  0  0  0  0  0  0
   -6.9369   -0.2507    2.7592 H   0  0  0  0  0  0  0  0  0  0  0  0
   -9.8537   -0.3620   -0.4114 H   0  0  0  0  0  0  0  0  0  0  0  0
   -9.3022   -0.4018    2.0030 H   0  0  0  0  0  0  0  0  0  0  0  0
   -2.3417    0.1456    1.1994 H   0  0  0  0  0  0  0  0  0  0  0  0
   -0.3113    0.2570    2.3773 H   0  0  0  0  0  0  0  0  0  0  0  0
   -0.3677    0.4016   -1.9608 H   0  0  0  0  0  0  0  0  0  0  0  0
    2.1357    0.4412    2.3150 H   0  0  0  0  0  0  0  0  0  0  0  0
    2.0135    0.5801   -1.9970 H   0  0  0  0  0  0  0  0  0  0  0  0
    3.5661    2.7679    0.1879 H   0  0  0  0  0  0  0  0  0  0  0  0
    3.1865   -2.0793    0.0402 H   0  0  0  0  0  0  0  0  0  0  0  0
    5.8156    3.1301    0.1350 H   0  0  0  0  0  0  0  0  0  0  0  0
    8.0467   -1.0659   -0.0625 H   0  0  0  0  0  0  0  0  0  0  0  0
    4.8297   -3.8930   -0.0655 H   0  0  0  0  0  0  0  0  0  0  0  0
    7.2560   -3.3957   -0.1166 H   0  0  0  0  0  0  0  0  0  0  0  0
  1 12  2  0  0  0  0
  2 26  2  0  0  0  0
  3  6  1  0  0  0  0
  3  7  1  0  0  0  0
  3 12  1  0  0  0  0
  4 12  1  0  0  0  0
  4 16  1  0  0  0  0
  4 38  1  0  0  0  0
  5 24  1  0  0  0  0
  5 26  1  0  0  0  0
  5 45  1  0  0  0  0
  6  8  1  0  0  0  0
  6 30  1  0  0  0  0
  6 31  1  0  0  0  0
  7  9  1  0  0  0  0
  7 32  1  0  0  0  0
  7 33  1  0  0  0  0
  8  9  1  0  0  0  0
  8 10  2  0  0  0  0
  9 11  2  0  0  0  0
 10 13  1  0  0  0  0
 10 34  1  0  0  0  0
 11 14  1  0  0  0  0
 11 35  1  0  0  0  0
 13 14  2  0  0  0  0
 13 36  1  0  0  0  0
 14 37  1  0  0  0  0
 15 17  1  0  0  0  0
 15 18  1  0  0  0  0
 15 24  2  0  0  0  0
 16 20  2  0  0  0  0
 16 21  1  0  0  0  0
 17 22  2  0  0  0  0
 17 23  1  0  0  0  0
 18 19  1  0  0  0  0
 18 25  2  0  0  0  0
 19 26  1  0  0  0  0
 19 27  2  0  0  0  0
 20 22  1  0  0  0  0
 20 39  1  0  0  0  0
 21 23  2  0  0  0  0
 21 40  1  0  0  0  0
 22 41  1  0  0  0  0
 23 42  1  0  0  0  0
 24 43  1  0  0  0  0
 25 28  1  0  0  0  0
 25 44  1  0  0  0  0
 27 29  1  0  0  0  0
 27 46  1  0  0  0  0
 28 29  2  0  0  0  0
 28 47  1  0  0  0  0
 29 48  1  0  0  0  0
M  END
> <PUBCHEM_COMPOUND_CID>
57509992

> <PUBCHEM_CONFORMER_RMSD>
0.8

> <PUBCHEM_CONFORMER_DIVERSEORDER>
1
24
26
15
28
19
18
25
16
17
27
20
23
6
21
9
7
22
12
5
14
11
13
2
10
8
4
3

> <PUBCHEM_MMFF94_PARTIAL_CHARGES>
44
1 -0.57
10 -0.15
11 -0.15
12 0.69
13 -0.15
14 -0.15
15 -0.06
16 0.12
17 0.03
18 0.03
19 0.09
2 -0.57
20 -0.15
21 -0.15
22 -0.15
23 -0.15
24 -0.04
25 -0.15
26 0.54
27 -0.15
28 -0.15
29 -0.15
3 -0.66
34 0.15
35 0.15
36 0.15
37 0.15
38 0.37
39 0.15
4 -0.55
40 0.15
41 0.15
42 0.15
43 0.15
44 0.15
45 0.37
46 0.15
47 0.15
48 0.15
5 -0.54
6 0.44
7 0.44
8 -0.14
9 -0.14

> <PUBCHEM_EFFECTIVE_ROTOR_COUNT>
4.6

> <PUBCHEM_PHARMACOPHORE_FEATURES>
9
1 1 acceptor
1 2 acceptor
1 4 donor
1 5 donor
5 3 6 7 8 9 rings
6 16 17 20 21 22 23 rings
6 18 19 25 27 28 29 rings
6 5 15 18 19 24 26 rings
6 8 9 10 11 13 14 rings

> <PUBCHEM_HEAVY_ATOM_COUNT>
29

> <PUBCHEM_ATOM_DEF_STEREO_COUNT>
0

> <PUBCHEM_ATOM_UDEF_STEREO_COUNT>
0

> <PUBCHEM_BOND_DEF_STEREO_COUNT>
0

> <PUBCHEM_BOND_UDEF_STEREO_COUNT>
0

> <PUBCHEM_ISOTOPIC_ATOM_COUNT>
0

> <PUBCHEM_COMPONENT_COUNT>
1

> <PUBCHEM_CACTVS_TAUTO_COUNT>
4

> <PUBCHEM_CONFORMER_ID>
036D886800000001

> <PUBCHEM_MMFF94_ENERGY>
95.5287

> <PUBCHEM_FEATURE_SELFOVERLAP>
45.78

> <PUBCHEM_SHAPE_FINGERPRINT>
10 15 17489874843317660969
10299344 5 17989487429009596775
10319688 140 17969493810412390242
11181472 205 17917442981555897561
11315181 36 11169916083601393709
11607047 141 15841554030322440430
11719270 70 14779539084744999497
12082328 90 18409448069114759289
12089408 11 17489588965883440305
12144603 126 17489867172400919728
12236239 1 17847061073893749464
12730499 353 18113614578435804362
13533116 47 18343862204554191714
13617811 41 15864072048994918206
13685833 64 18334577919114827534
13885169 127 18186801340961651893
14028597 1 17346041065478288243
14118638 360 18411702058839805624
14170010 4 18260548935610307668
14251764 18 17561645460204025139
14251764 46 18113053857122191888
14294032 229 14924495318038876727
150020 25 17821729408010644043
15119646 104 17846500300908817054
15183329 4 17132116857678134449
15198563 99 17896035456046337749
15301273 46 17967531264319246173
15328684 2 17131280038872172115
15352257 5 18334016103365621163
15419008 47 17675917716554093157
15419008 91 17385989711644503021
15510794 2 18113618998057482643
1577012 14 17489584580326290093
15849732 13 17821447976041459959
16120349 18 18412822520795669036
18335252 98 18333732420717230164
19301679 30 17416974920177999966
19315958 150 18334581273874578442
20105231 36 17385730184187902035
20157964 124 18410293627768414936
20554085 129 14764346020203196102
20771845 140 16486685879943205646
21150785 3 12684814411782991303
21315759 40 18060136566175091341
21344244 181 18114466678056478042
21344244 78 17988350478901099216
22956985 138 16412687553672099838
23081809 10 17704066322278442141
23516275 137 17987820539038848487
23522609 53 17702964641677072441
24771293 8 13326267292104051826
3004659 81 16271927150801115929
3044373 193 17603591846263273716
335352 9 15769775784355605913
3383291 50 17023191552482357251
34797466 226 17603868922845410820
4073 2 18263926703623232850
4098825 35 18338795615781059069
437795 51 18187364320167733898
44880568 143 17168143408213510429
45377200 153 18188212121907934539
5219985 9 17561081406391846785
57527295 17 17389949955634073450
58260988 647 18263929839434779226
59755656 215 17240199906981743827
59755656 520 18131626816761638999

> <PUBCHEM_SHAPE_MULTIPOLES>
570.12
28.24
1.75
1.3
30.78
0.85
-0.01
5.27
2.23
-6.01
0.02
2.45
-0.06
0.37

> <PUBCHEM_SHAPE_SELFOVERLAP>
1277.367

> <PUBCHEM_SHAPE_VOLUME>
300.4

> <PUBCHEM_COORDINATE_TYPE>
2
5
10

$$$$
57509999
  -OEChem-05102415043D

 67 72  0     0  0  0  0  0  0999 V2000
   -0.0454    0.2575   -1.8211 O   0  0  0  0  0  0  0  0  0  0  0  0
  -10.1496    1.8342    0.1053 O   0  0  0  0  0  0  0  0  0  0  0  0
    8.3670   -0.3428    0.0312 N   0  0  0  0  0  0  0  0  0  0  0  0
   10.4477    1.6310   -0.3344 N   0  0  0  0  0  0  0  0  0  0  0  0
    1.5453   -0.4054   -0.3039 N   0  0  0  0  0  0  0  0  0  0  0  0
   -0.6803   -0.1773    0.3826 N   0  0  0  0  0  0  0  0  0  0  0  0
   -6.6362    2.0760    0.5188 N   0  0  0  0  0  0  0  0  0  0  0  0
   -7.9531    2.3789    0.4727 N   0  0  0  0  0  0  0  0  0  0  0  0
    9.7852   -0.7221    0.0281 C   0  0  0  0  0  0  0  0  0  0  0  0
    8.1528    0.8447   -0.8048 C   0  0  0  0  0  0  0  0  0  0  0  0
   10.6626    0.4424    0.5000 C   0  0  0  0  0  0  0  0  0  0  0  0
    9.0293    2.0095   -0.3320 C   0  0  0  0  0  0  0  0  0  0  0  0
    7.5316   -1.4535   -0.4208 C   0  0  0  0  0  0  0  0  0  0  0  0
    3.8388   -0.7688   -0.4958 C   0  0  0  0  0  0  0  0  0  0  0  0
    6.1089   -1.3030    0.0046 C   0  0  0  0  0  0  0  0  0  0  0  0
    3.4821   -1.0363    0.8313 C   0  0  0  0  0  0  0  0  0  0  0  0
    2.6404   -0.3566   -1.2824 C   0  0  0  0  0  0  0  0  0  0  0  0
    2.0183   -0.8221    1.0291 C   0  0  0  0  0  0  0  0  0  0  0  0
    5.1480   -0.8978   -0.9244 C   0  0  0  0  0  0  0  0  0  0  0  0
    5.7509   -1.5714    1.3360 C   0  0  0  0  0  0  0  0  0  0  0  0
    4.4265   -1.4386    1.7589 C   0  0  0  0  0  0  0  0  0  0  0  0
   11.2822    2.7418    0.1195 C   0  0  0  0  0  0  0  0  0  0  0  0
    0.2320   -0.0792   -0.6685 C   0  0  0  0  0  0  0  0  0  0  0  0
   -2.0731    0.0800    0.3518 C   0  0  0  0  0  0  0  0  0  0  0  0
   -2.6819    0.4830   -0.8367 C   0  0  0  0  0  0  0  0  0  0  0  0
   -2.8352   -0.0681    1.5107 C   0  0  0  0  0  0  0  0  0  0  0  0
   -4.8152    0.5892    0.2923 C   0  0  0  0  0  0  0  0  0  0  0  0
   -4.0529    0.7376   -0.8664 C   0  0  0  0  0  0  0  0  0  0  0  0
   -4.2063    0.1866    1.4809 C   0  0  0  0  0  0  0  0  0  0  0  0
   -6.2664    0.8595    0.2597 C   0  0  0  0  0  0  0  0  0  0  0  0
   -7.2196   -0.2263   -0.0585 C   0  0  0  0  0  0  0  0  0  0  0  0
   -8.5690    0.1140   -0.1176 C   0  0  0  0  0  0  0  0  0  0  0  0
   -6.8308   -1.5525   -0.2741 C   0  0  0  0  0  0  0  0  0  0  0  0
   -8.9685    1.5036    0.1559 C   0  0  0  0  0  0  0  0  0  0  0  0
   -9.5332   -0.8546   -0.4145 C   0  0  0  0  0  0  0  0  0  0  0  0
   -7.7926   -2.5207   -0.5700 C   0  0  0  0  0  0  0  0  0  0  0  0
   -9.1401   -2.1723   -0.6436 C   0  0  0  0  0  0  0  0  0  0  0  0
   10.1019   -1.0427   -0.9738 H   0  0  0  0  0  0  0  0  0  0  0  0
    9.9467   -1.5673    0.7084 H   0  0  0  0  0  0  0  0  0  0  0  0
    7.1106    1.1778   -0.7461 H   0  0  0  0  0  0  0  0  0  0  0  0
    8.3687    0.6283   -1.8600 H   0  0  0  0  0  0  0  0  0  0  0  0
   11.7122    0.1306    0.4373 H   0  0  0  0  0  0  0  0  0  0  0  0
   10.4491    0.6609    1.5553 H   0  0  0  0  0  0  0  0  0  0  0  0
    8.7105    2.3284    0.6699 H   0  0  0  0  0  0  0  0  0  0  0  0
    8.8713    2.8573   -1.0098 H   0  0  0  0  0  0  0  0  0  0  0  0
    7.8910   -2.3970    0.0146 H   0  0  0  0  0  0  0  0  0  0  0  0
    7.6077   -1.6000   -1.5072 H   0  0  0  0  0  0  0  0  0  0  0  0
    2.7277    0.6645   -1.6657 H   0  0  0  0  0  0  0  0  0  0  0  0
    2.4193   -1.0536   -2.0964 H   0  0  0  0  0  0  0  0  0  0  0  0
    1.5063   -1.7451    1.3170 H   0  0  0  0  0  0  0  0  0  0  0  0
    1.8167   -0.0207    1.7460 H   0  0  0  0  0  0  0  0  0  0  0  0
    5.4124   -0.6873   -1.9557 H   0  0  0  0  0  0  0  0  0  0  0  0
    6.5044   -1.8867    2.0540 H   0  0  0  0  0  0  0  0  0  0  0  0
    4.1517   -1.6462    2.7872 H   0  0  0  0  0  0  0  0  0  0  0  0
   11.0485    3.0437    1.1469 H   0  0  0  0  0  0  0  0  0  0  0  0
   12.3425    2.4697    0.0730 H   0  0  0  0  0  0  0  0  0  0  0  0
   11.1522    3.6119   -0.5335 H   0  0  0  0  0  0  0  0  0  0  0  0
   -0.3275   -0.4652    1.2900 H   0  0  0  0  0  0  0  0  0  0  0  0
   -2.1649    0.6206   -1.7752 H   0  0  0  0  0  0  0  0  0  0  0  0
   -2.3732   -0.3812    2.4434 H   0  0  0  0  0  0  0  0  0  0  0  0
   -4.5186    1.0510   -1.7973 H   0  0  0  0  0  0  0  0  0  0  0  0
   -4.7907    0.0681    2.3896 H   0  0  0  0  0  0  0  0  0  0  0  0
   -5.7905   -1.8595   -0.2253 H   0  0  0  0  0  0  0  0  0  0  0  0
  -10.5891   -0.6045   -0.4663 H   0  0  0  0  0  0  0  0  0  0  0  0
   -8.1657    3.3493    0.6810 H   0  0  0  0  0  0  0  0  0  0  0  0
   -7.4892   -3.5494   -0.7433 H   0  0  0  0  0  0  0  0  0  0  0  0
   -9.8846   -2.9289   -0.8736 H   0  0  0  0  0  0  0  0  0  0  0  0
  1 23  2  0  0  0  0
  2 34  2  0  0  0  0
  3  9  1  0  0  0  0
  3 10  1  0  0  0  0
  3 13  1  0  0  0  0
  4 11  1  0  0  0  0
  4 12  1  0  0  0  0
  4 22  1  0  0  0  0
  5 17  1  0  0  0  0
  5 18  1  0  0  0  0
  5 23  1  0  0  0  0
  6 23  1  0  0  0  0
  6 24  1  0  0  0  0
  6 58  1  0  0  0  0
  7  8  1  0  0  0  0
  7 30  2  0  0  0  0
  8 34  1  0  0  0  0
  8 65  1  0  0  0  0
  9 11  1  0  0  0  0
  9 38  1  0  0  0  0
  9 39  1  0  0  0  0
 10 12  1  0  0  0  0
 10 40  1  0  0  0  0
 10 41  1  0  0  0  0
 11 42  1  0  0  0  0
 11 43  1  0  0  0  0
 12 44  1  0  0  0  0
 12 45  1  0  0  0  0
 13 15  1  0  0  0  0
 13 46  1  0  0  0  0
 13 47  1  0  0  0  0
 14 16  2  0  0  0  0
 14 17  1  0  0  0  0
 14 19  1  0  0  0  0
 15 19  2  0  0  0  0
 15 20  1  0  0  0  0
 16 18  1  0  0  0  0
 16 21  1  0  0  0  0
 17 48  1  0  0  0  0
 17 49  1  0  0  0  0
 18 50  1  0  0  0  0
 18 51  1  0  0  0  0
 19 52  1  0  0  0  0
 20 21  2  0  0  0  0
 20 53  1  0  0  0  0
 21 54  1  0  0  0  0
 22 55  1  0  0  0  0
 22 56  1  0  0  0  0
 22 57  1  0  0  0  0
 24 25  2  0  0  0  0
 24 26  1  0  0  0  0
 25 28  1  0  0  0  0
 25 59  1  0  0  0  0
 26 29  2  0  0  0  0
 26 60  1  0  0  0  0
 27 28  2  0  0  0  0
 27 29  1  0  0  0  0
 27 30  1  0  0  0  0
 28 61  1  0  0  0  0
 29 62  1  0  0  0  0
 30 31  1  0  0  0  0
 31 32  1  0  0  0  0
 31 33  2  0  0  0  0
 32 34  1  0  0  0  0
 32 35  2  0  0  0  0
 33 36  1  0  0  0  0
 33 63  1  0  0  0  0
 35 37  1  0  0  0  0
 35 64  1  0  0  0  0
 36 37  2  0  0  0  0
 36 66  1  0  0  0  0
 37 67  1  0  0  0  0
M  END
> <PUBCHEM_COMPOUND_CID>
57509999

> <PUBCHEM_CONFORMER_RMSD>
1

> <PUBCHEM_CONFORMER_DIVERSEORDER>
1
145
95
13
97
150
146
128
60
85
81
148
141
131
90
26
153
99
43
152
11
34
147
143
127
113
133
66
132
155
30
144
5
130
71
59
77
114
68
154
140
57
138
92
50
125
45
75
98
149
67
63
142
47
93
126
135
100
111
23
42
80
129
82
51
49
122
70
117
65
38
151
118
35
39
108
112
7
87
76
41
15
137
31
136
106
101
121
32
4
134
55
12
52
2
73
64
72
88
107
25
17
105
104
83
54
110
123
61
27
48
53
96
46
33
79
139
24
103
16
40
8
44
89
29
21
91
9
62
56
14
86
36
58
37
119
115
69
3
124
94
22
120
10
20
84
74
109
78
6
18
116
102
28
19

> <PUBCHEM_MMFF94_PARTIAL_CHARGES>
50
1 -0.57
10 0.27
11 0.27
12 0.27
13 0.41
14 -0.14
15 -0.14
16 -0.14
17 0.44
18 0.44
19 -0.15
2 -0.57
20 -0.15
21 -0.15
22 0.27
23 0.69
24 0.12
25 -0.15
26 -0.15
27 0.09
28 -0.15
29 -0.15
3 -0.81
30 0.28
31 0.09
32 0.09
33 -0.15
34 0.54
35 -0.15
36 -0.15
37 -0.15
4 -0.81
5 -0.66
52 0.15
53 0.15
54 0.15
58 0.37
59 0.15
6 -0.55
60 0.15
61 0.15
62 0.15
63 0.15
64 0.15
65 0.37
66 0.15
67 0.15
7 -0.51
8 -0.37
9 0.27

> <PUBCHEM_EFFECTIVE_ROTOR_COUNT>
7.8

> <PUBCHEM_PHARMACOPHORE_FEATURES>
13
1 1 acceptor
1 2 acceptor
1 3 cation
1 4 cation
1 6 donor
1 7 acceptor
1 8 donor
5 5 14 16 17 18 rings
6 14 15 16 19 20 21 rings
6 24 25 26 27 28 29 rings
6 3 4 9 10 11 12 rings
6 31 32 33 35 36 37 rings
6 7 8 30 31 32 34 rings

> <PUBCHEM_HEAVY_ATOM_COUNT>
37

> <PUBCHEM_ATOM_DEF_STEREO_COUNT>
0

> <PUBCHEM_ATOM_UDEF_STEREO_COUNT>
0

> <PUBCHEM_BOND_DEF_STEREO_COUNT>
0

> <PUBCHEM_BOND_UDEF_STEREO_COUNT>
0

> <PUBCHEM_ISOTOPIC_ATOM_COUNT>
0

> <PUBCHEM_COMPONENT_COUNT>
1

> <PUBCHEM_CACTVS_TAUTO_COUNT>
6

> <PUBCHEM_CONFORMER_ID>
036D886F00000001

> <PUBCHEM_MMFF94_ENERGY>
120.6717

> <PUBCHEM_FEATURE_SELFOVERLAP>
66.082

> <PUBCHEM_SHAPE_FINGERPRINT>
10162869 55 17458345268938155494
10299344 5 18187365398900506371
10391435 84 16370732542785640914
11135926 11 16226049960573014363
12013929 94 18343302604591540719
12089408 11 18410292484463335938
12098696 120 14562529561613457866
12144603 126 18335417984727416366
12664476 115 18113897165582730564
12838862 33 16298101003920873194
13383668 251 18116142440961220308
14118638 360 16009023930463452957
14251764 46 18333733498421614603
14344974 52 18335703870497883586
14359421 15 12318920015795501028
15061470 23 18411979143837706605
15065858 18 18410575058946419198
15145343 6 17775001301695408795
15183329 4 16370441143057510507
15392192 104 18131631180216621454
15461852 350 18342177765425146971
15510794 2 18060422378547123070
15530121 191 17846771914963033072
15840311 113 18335144190248743350
16120349 18 17968098646969255900
16728433 110 18040435494710459221
17686467 74 18334297591216430777
19315958 150 18410579449073369642
20105231 36 13039192490226203604
21095123 145 17417808466008556583
21362267 2 17489007328739377416
21362267 313 18264767650130748962
21792934 111 16515685563966252372
22164985 6 17894909616289862390
232437 2 18410012113947445414
24771293 8 18113338596015390157
249057 3 15051724292344704342
3092352 35 18131350805183983478
395649 100 18187366575637805891
4173938 188 18334011735267538114
44280117 145 18343018918270545127
45270241 37 18202005405315562422
474113 269 7925639912849812852
4874694 18 16370443358559224010
5028188 123 18411696596184314615
54583773 228 18202004347962322832
6057620 51 18272654524198653962
6126387 218 18186522090239754797
67123 10 18412826884819798550
9663363 56 16225764113124313261
9937071 3 13117996696302566920

> <PUBCHEM_SHAPE_MULTIPOLES>
719.82
46.13
2.18
1.21
31.49
0.57
0.17
14.13
-1.99
-0.42
0.06
0.41
-0.24
-2.07

> <PUBCHEM_SHAPE_SELFOVERLAP>
1584.567

> <PUBCHEM_SHAPE_VOLUME>
388.9

> <PUBCHEM_COORDINATE_TYPE>
2
5
10

$$$$
57509991
  -OEChem-05102415043D

 47 51  0     0  0  0  0  0  0999 V2000
    2.1996    0.2904   -1.9979 O   0  0  0  0  0  0  0  0  0  0  0  0
    3.8642    0.0652   -0.4327 N   0  0  0  0  0  0  0  0  0  0  0  0
    1.6378    0.2382    0.2672 N   0  0  0  0  0  0  0  0  0  0  0  0
   -5.8535    2.3043    0.1362 N   0  0  0  0  0  0  0  0  0  0  0  0
    4.9360    0.0123   -1.4366 C   0  0  0  0  0  0  0  0  0  0  0  0
    4.3916   -0.0464    0.9398 C   0  0  0  0  0  0  0  0  0  0  0  0
    6.1775   -0.1392   -0.6238 C   0  0  0  0  0  0  0  0  0  0  0  0
    5.8655   -0.1732    0.7404 C   0  0  0  0  0  0  0  0  0  0  0  0
    7.4863   -0.2404   -1.0610 C   0  0  0  0  0  0  0  0  0  0  0  0
    6.8554   -0.3091    1.6977 C   0  0  0  0  0  0  0  0  0  0  0  0
    2.5222    0.2063   -0.8115 C   0  0  0  0  0  0  0  0  0  0  0  0
    8.4928   -0.3778   -0.1025 C   0  0  0  0  0  0  0  0  0  0  0  0
    8.1798   -0.4119    1.2664 C   0  0  0  0  0  0  0  0  0  0  0  0
    0.2276    0.3697    0.2316 C   0  0  0  0  0  0  0  0  0  0  0  0
   -2.5490    0.6289    0.1614 C   0  0  0  0  0  0  0  0  0  0  0  0
   -3.9891    0.7634    0.1251 C   0  0  0  0  0  0  0  0  0  0  0  0
   -4.8609   -0.3292    0.0532 C   0  0  0  0  0  0  0  0  0  0  0  0
   -0.5018    0.3834    1.4205 C   0  0  0  0  0  0  0  0  0  0  0  0
   -0.4312    0.4857   -0.9924 C   0  0  0  0  0  0  0  0  0  0  0  0
   -1.8900    0.5129    1.3854 C   0  0  0  0  0  0  0  0  0  0  0  0
   -1.8196    0.6152   -1.0274 C   0  0  0  0  0  0  0  0  0  0  0  0
   -6.2508   -0.0924    0.0226 C   0  0  0  0  0  0  0  0  0  0  0  0
   -4.5300    2.0395    0.1634 C   0  0  0  0  0  0  0  0  0  0  0  0
   -4.3920   -1.6522    0.0105 C   0  0  0  0  0  0  0  0  0  0  0  0
   -7.1424   -1.1753   -0.0498 C   0  0  0  0  0  0  0  0  0  0  0  0
   -6.6793    1.2359    0.0665 C   0  0  0  0  0  0  0  0  0  0  0  0
   -5.2873   -2.7210   -0.0611 C   0  0  0  0  0  0  0  0  0  0  0  0
   -6.6594   -2.4831   -0.0913 C   0  0  0  0  0  0  0  0  0  0  0  0
    4.9285    0.9430   -2.0120 H   0  0  0  0  0  0  0  0  0  0  0  0
    4.7637   -0.8455   -2.0936 H   0  0  0  0  0  0  0  0  0  0  0  0
    3.9663   -0.9356    1.4144 H   0  0  0  0  0  0  0  0  0  0  0  0
    4.1318    0.8588    1.4967 H   0  0  0  0  0  0  0  0  0  0  0  0
    7.7299   -0.2146   -2.1175 H   0  0  0  0  0  0  0  0  0  0  0  0
    6.6154   -0.3357    2.7550 H   0  0  0  0  0  0  0  0  0  0  0  0
    9.5296   -0.4595   -0.4175 H   0  0  0  0  0  0  0  0  0  0  0  0
    8.9776   -0.5195    1.9963 H   0  0  0  0  0  0  0  0  0  0  0  0
    2.0278    0.1598    1.2012 H   0  0  0  0  0  0  0  0  0  0  0  0
   -0.0006    0.2937    2.3809 H   0  0  0  0  0  0  0  0  0  0  0  0
    0.0582    0.4836   -1.9554 H   0  0  0  0  0  0  0  0  0  0  0  0
   -2.4436    0.5213    2.3215 H   0  0  0  0  0  0  0  0  0  0  0  0
   -2.3191    0.7041   -1.9895 H   0  0  0  0  0  0  0  0  0  0  0  0
   -3.9011    2.9241    0.2194 H   0  0  0  0  0  0  0  0  0  0  0  0
   -3.3313   -1.8892    0.0314 H   0  0  0  0  0  0  0  0  0  0  0  0
   -8.2167   -1.0074   -0.0742 H   0  0  0  0  0  0  0  0  0  0  0  0
   -7.7361    1.4879    0.0462 H   0  0  0  0  0  0  0  0  0  0  0  0
   -4.9130   -3.7402   -0.0935 H   0  0  0  0  0  0  0  0  0  0  0  0
   -7.3538   -3.3164   -0.1472 H   0  0  0  0  0  0  0  0  0  0  0  0
  1 11  2  0  0  0  0
  2  5  1  0  0  0  0
  2  6  1  0  0  0  0
  2 11  1  0  0  0  0
  3 11  1  0  0  0  0
  3 14  1  0  0  0  0
  3 37  1  0  0  0  0
  4 23  1  0  0  0  0
  4 26  2  0  0  0  0
  5  7  1  0  0  0  0
  5 29  1  0  0  0  0
  5 30  1  0  0  0  0
  6  8  1  0  0  0  0
  6 31  1  0  0  0  0
  6 32  1  0  0  0  0
  7  8  1  0  0  0  0
  7  9  2  0  0  0  0
  8 10  2  0  0  0  0
  9 12  1  0  0  0  0
  9 33  1  0  0  0  0
 10 13  1  0  0  0  0
 10 34  1  0  0  0  0
 12 13  2  0  0  0  0
 12 35  1  0  0  0  0
 13 36  1  0  0  0  0
 14 18  2  0  0  0  0
 14 19  1  0  0  0  0
 15 16  1  0  0  0  0
 15 20  2  0  0  0  0
 15 21  1  0  0  0  0
 16 17  1  0  0  0  0
 16 23  2  0  0  0  0
 17 22  1  0  0  0  0
 17 24  2  0  0  0  0
 18 20  1  0  0  0  0
 18 38  1  0  0  0  0
 19 21  2  0  0  0  0
 19 39  1  0  0  0  0
 20 40  1  0  0  0  0
 21 41  1  0  0  0  0
 22 25  2  0  0  0  0
 22 26  1  0  0  0  0
 23 42  1  0  0  0  0
 24 27  1  0  0  0  0
 24 43  1  0  0  0  0
 25 28  1  0  0  0  0
 25 44  1  0  0  0  0
 26 45  1  0  0  0  0
 27 28  2  0  0  0  0
 27 46  1  0  0  0  0
 28 47  1  0  0  0  0
M  END
> <PUBCHEM_COMPOUND_CID>
57509991

> <PUBCHEM_CONFORMER_RMSD>
0.8

> <PUBCHEM_CONFORMER_DIVERSEORDER>
2
18
28
14
7
12
22
24
11
27
17
19
21
5
23
10
26
6
20
25
15
1
13
16
3
8
4
9

> <PUBCHEM_MMFF94_PARTIAL_CHARGES>
39
1 -0.57
10 -0.15
11 0.69
12 -0.15
13 -0.15
14 0.12
18 -0.15
19 -0.15
2 -0.66
20 -0.15
21 -0.15
23 0.16
24 -0.15
25 -0.15
26 0.16
27 -0.15
28 -0.15
3 -0.55
33 0.15
34 0.15
35 0.15
36 0.15
37 0.37
38 0.15
39 0.15
4 -0.62
40 0.15
41 0.15
42 0.15
43 0.15
44 0.15
45 0.15
46 0.15
47 0.15
5 0.44
6 0.44
7 -0.14
8 -0.14
9 -0.15

> <PUBCHEM_EFFECTIVE_ROTOR_COUNT>
4.6

> <PUBCHEM_PHARMACOPHORE_FEATURES>
8
1 1 acceptor
1 3 donor
1 4 acceptor
5 2 5 6 7 8 rings
6 14 15 18 19 20 21 rings
6 17 22 24 25 27 28 rings
6 4 16 17 22 23 26 rings
6 7 8 9 10 12 13 rings

> <PUBCHEM_HEAVY_ATOM_COUNT>
28

> <PUBCHEM_ATOM_DEF_STEREO_COUNT>
0

> <PUBCHEM_ATOM_UDEF_STEREO_COUNT>
0

> <PUBCHEM_BOND_DEF_STEREO_COUNT>
0

> <PUBCHEM_BOND_UDEF_STEREO_COUNT>
0

> <PUBCHEM_ISOTOPIC_ATOM_COUNT>
0

> <PUBCHEM_COMPONENT_COUNT>
1

> <PUBCHEM_CACTVS_TAUTO_COUNT>
2

> <PUBCHEM_CONFORMER_ID>
036D886700000002

> <PUBCHEM_MMFF94_ENERGY>
96.8621

> <PUBCHEM_FEATURE_SELFOVERLAP>
40.708

> <PUBCHEM_SHAPE_FINGERPRINT>
10 15 17561078133784417810
10299344 5 18040152912006459538
10554248 39 16081095883168414966
106641 1 14836124390613207479
11135926 11 18260823779189558087
11315181 36 18260831510272732277
11524674 6 17561362902922586655
11646440 116 16415763037707302104
11719270 70 18131352990836884814
12082328 90 18413107238482958628
12089408 11 18113900451690959056
12166972 35 18186523236880615124
12236239 1 17822293496420217901
13533116 47 17240478075503426232
13885169 127 18412826863149822169
13911987 19 14996273739661187867
13974486 7 17982723380133727087
14068700 675 18187085061520995636
14251764 18 17458065954593433156
14461889 52 18131633387613312478
14856354 85 18335703862651896815
15021287 119 17385447622362620429
15119646 104 17603580799365041970
15183329 4 16153704336509756362
15419008 47 17775279444079081152
15419008 91 18129926932524256416
15461852 350 18409454691479283814
15510794 2 17775568615288298422
1577012 14 17676488328622823664
15849732 13 17846777403962326236
17093844 174 17775567529542371465
17686467 74 18337107968728201864
19303781 99 18124306371392096847
19611394 137 17632295726160240818
21267235 1 16056607539114928856
21315759 40 18040435477894417696
21521721 280 14836399251335000806
21623969 137 16702029681448795879
22224240 67 18259983774059874394
23081809 10 17749398074068406636
23522609 53 17678485028738783340
23559900 14 18272083920951081977
249057 25 18114758074186037692
249057 3 18410011040363890093
2747138 104 16916796205417976386
3178227 256 16630808829182642026
335352 9 16008755710415252778
3418910 222 17917438665536278656
397830 11 17916857058017004208
4325135 7 18113053830972573503
4339292 15 18130779110508167407
44389302 135 18042391458422268634
5085150 59 18411699902439669042
5104073 3 16629701534499359610
5219985 9 17458344135293727596
54039377 194 17822860896493125435
57676310 188 18040996216024968410
58260988 114 16444211840952366041
58902169 19 17676210199135649198
59682541 35 16558747953098915279
5969126 39 16733256893977660421
6009941 240 18130791123215059385
6081469 158 13262671514495976842
99344 41 18334856087157066218
9953998 17 17846502535103817323

> <PUBCHEM_SHAPE_MULTIPOLES>
555.41
26.83
1.73
1.32
28.45
0.64
0.01
7
-2.21
-5.69
-0.03
2.31
-0.08
-0.46

> <PUBCHEM_SHAPE_SELFOVERLAP>
1248.99

> <PUBCHEM_SHAPE_VOLUME>
292.4

> <PUBCHEM_COORDINATE_TYPE>
2
5
10

$$$$
57510158
  -OEChem-05102415043D

 47 51  0     0  0  0  0  0  0999 V2000
    2.2633    0.3088   -1.9930 O   0  0  0  0  0  0  0  0  0  0  0  0
   -7.9537   -1.7085   -0.1185 O   0  0  0  0  0  0  0  0  0  0  0  0
    3.9284    0.0570   -0.4324 N   0  0  0  0  0  0  0  0  0  0  0  0
   -5.7085   -2.4126   -0.0944 N   0  0  0  0  0  0  0  0  0  0  0  0
    1.7028    0.2238    0.2714 N   0  0  0  0  0  0  0  0  0  0  0  0
    4.4564   -0.0761    0.9380 C   0  0  0  0  0  0  0  0  0  0  0  0
    4.9996    0.0171   -1.4376 C   0  0  0  0  0  0  0  0  0  0  0  0
    5.9299   -0.2028    0.7358 C   0  0  0  0  0  0  0  0  0  0  0  0
    6.2413   -0.1489   -0.6279 C   0  0  0  0  0  0  0  0  0  0  0  0
   -4.7545   -0.3385    0.0530 C   0  0  0  0  0  0  0  0  0  0  0  0
   -3.9231    0.7618    0.1406 C   0  0  0  0  0  0  0  0  0  0  0  0
    2.5865    0.2063   -0.8082 C   0  0  0  0  0  0  0  0  0  0  0  0
   -4.4030   -1.7842   -0.0200 C   0  0  0  0  0  0  0  0  0  0  0  0
    6.9201   -0.3548    1.6903 C   0  0  0  0  0  0  0  0  0  0  0  0
    7.5495   -0.2461   -1.0674 C   0  0  0  0  0  0  0  0  0  0  0  0
   -6.1401   -0.1731    0.0222 C   0  0  0  0  0  0  0  0  0  0  0  0
   -2.4833    0.6241    0.1740 C   0  0  0  0  0  0  0  0  0  0  0  0
   -6.7558   -1.5001   -0.0721 C   0  0  0  0  0  0  0  0  0  0  0  0
    8.2441   -0.4538    1.2567 C   0  0  0  0  0  0  0  0  0  0  0  0
    8.5564   -0.3998   -0.1116 C   0  0  0  0  0  0  0  0  0  0  0  0
    0.2929    0.3585    0.2386 C   0  0  0  0  0  0  0  0  0  0  0  0
   -4.5114    2.0299    0.1966 C   0  0  0  0  0  0  0  0  0  0  0  0
   -6.7465    1.0664    0.0761 C   0  0  0  0  0  0  0  0  0  0  0  0
   -1.8239    0.4885    1.3958 C   0  0  0  0  0  0  0  0  0  0  0  0
   -1.7546    0.6267   -1.0153 C   0  0  0  0  0  0  0  0  0  0  0  0
   -5.9105    2.1804    0.1646 C   0  0  0  0  0  0  0  0  0  0  0  0
   -0.4358    0.3558    1.4280 C   0  0  0  0  0  0  0  0  0  0  0  0
   -0.3665    0.4940   -0.9831 C   0  0  0  0  0  0  0  0  0  0  0  0
    4.1987    0.8211    1.5085 H   0  0  0  0  0  0  0  0  0  0  0  0
    4.0297   -0.9715    1.3995 H   0  0  0  0  0  0  0  0  0  0  0  0
    4.8253   -0.8305   -2.1073 H   0  0  0  0  0  0  0  0  0  0  0  0
    4.9935    0.9563   -1.9990 H   0  0  0  0  0  0  0  0  0  0  0  0
   -3.8428   -2.0370   -0.9237 H   0  0  0  0  0  0  0  0  0  0  0  0
   -3.8956   -2.1408    0.8799 H   0  0  0  0  0  0  0  0  0  0  0  0
    6.6807   -0.3968    2.7473 H   0  0  0  0  0  0  0  0  0  0  0  0
    7.7926   -0.2049   -2.1235 H   0  0  0  0  0  0  0  0  0  0  0  0
   -5.8441   -3.4167   -0.1561 H   0  0  0  0  0  0  0  0  0  0  0  0
    2.0931    0.1307    1.2039 H   0  0  0  0  0  0  0  0  0  0  0  0
    9.0421   -0.5738    1.9845 H   0  0  0  0  0  0  0  0  0  0  0  0
    9.5929   -0.4787   -0.4285 H   0  0  0  0  0  0  0  0  0  0  0  0
   -3.8944    2.9238    0.2659 H   0  0  0  0  0  0  0  0  0  0  0  0
   -7.8240    1.1793    0.0512 H   0  0  0  0  0  0  0  0  0  0  0  0
   -2.3770    0.4839    2.3321 H   0  0  0  0  0  0  0  0  0  0  0  0
   -2.2547    0.7309   -1.9756 H   0  0  0  0  0  0  0  0  0  0  0  0
   -6.3426    3.1766    0.2094 H   0  0  0  0  0  0  0  0  0  0  0  0
    0.0657    0.2508    2.3867 H   0  0  0  0  0  0  0  0  0  0  0  0
    0.1224    0.5054   -1.9463 H   0  0  0  0  0  0  0  0  0  0  0  0
  1 12  2  0  0  0  0
  2 18  2  0  0  0  0
  3  6  1  0  0  0  0
  3  7  1  0  0  0  0
  3 12  1  0  0  0  0
  4 13  1  0  0  0  0
  4 18  1  0  0  0  0
  4 37  1  0  0  0  0
  5 12  1  0  0  0  0
  5 21  1  0  0  0  0
  5 38  1  0  0  0  0
  6  8  1  0  0  0  0
  6 29  1  0  0  0  0
  6 30  1  0  0  0  0
  7  9  1  0  0  0  0
  7 31  1  0  0  0  0
  7 32  1  0  0  0  0
  8  9  1  0  0  0  0
  8 14  2  0  0  0  0
  9 15  2  0  0  0  0
 10 11  2  0  0  0  0
 10 13  1  0  0  0  0
 10 16  1  0  0  0  0
 11 17  1  0  0  0  0
 11 22  1  0  0  0  0
 13 33  1  0  0  0  0
 13 34  1  0  0  0  0
 14 19  1  0  0  0  0
 14 35  1  0  0  0  0
 15 20  1  0  0  0  0
 15 36  1  0  0  0  0
 16 18  1  0  0  0  0
 16 23  2  0  0  0  0
 17 24  2  0  0  0  0
 17 25  1  0  0  0  0
 19 20  2  0  0  0  0
 19 39  1  0  0  0  0
 20 40  1  0  0  0  0
 21 27  2  0  0  0  0
 21 28  1  0  0  0  0
 22 26  2  0  0  0  0
 22 41  1  0  0  0  0
 23 26  1  0  0  0  0
 23 42  1  0  0  0  0
 24 27  1  0  0  0  0
 24 43  1  0  0  0  0
 25 28  2  0  0  0  0
 25 44  1  0  0  0  0
 26 45  1  0  0  0  0
 27 46  1  0  0  0  0
 28 47  1  0  0  0  0
M  END
> <PUBCHEM_COMPOUND_CID>
57510158

> <PUBCHEM_CONFORMER_RMSD>
0.8

> <PUBCHEM_CONFORMER_DIVERSEORDER>
2
23
26
12
27
10
21
8
19
29
30
25
22
11
28
15
4
20
18
24
6
16
17
1
14
13
9
7
3
5

> <PUBCHEM_MMFF94_PARTIAL_CHARGES>
39
1 -0.57
10 -0.14
12 0.69
13 0.44
14 -0.15
15 -0.15
16 0.09
18 0.54
19 -0.15
2 -0.57
20 -0.15
21 0.12
22 -0.15
23 -0.15
24 -0.15
25 -0.15
26 -0.15
27 -0.15
28 -0.15
3 -0.66
35 0.15
36 0.15
37 0.37
38 0.37
39 0.15
4 -0.73
40 0.15
41 0.15
42 0.15
43 0.15
44 0.15
45 0.15
46 0.15
47 0.15
5 -0.55
6 0.44
7 0.44
8 -0.14
9 -0.14

> <PUBCHEM_EFFECTIVE_ROTOR_COUNT>
5

> <PUBCHEM_PHARMACOPHORE_FEATURES>
9
1 1 acceptor
1 2 acceptor
1 4 donor
1 5 donor
5 3 6 7 8 9 rings
5 4 10 13 16 18 rings
6 10 11 16 22 23 26 rings
6 17 21 24 25 27 28 rings
6 8 9 14 15 19 20 rings

> <PUBCHEM_HEAVY_ATOM_COUNT>
28

> <PUBCHEM_ATOM_DEF_STEREO_COUNT>
0

> <PUBCHEM_ATOM_UDEF_STEREO_COUNT>
0

> <PUBCHEM_BOND_DEF_STEREO_COUNT>
0

> <PUBCHEM_BOND_UDEF_STEREO_COUNT>
0

> <PUBCHEM_ISOTOPIC_ATOM_COUNT>
0

> <PUBCHEM_COMPONENT_COUNT>
1

> <PUBCHEM_CACTVS_TAUTO_COUNT>
4

> <PUBCHEM_CONFORMER_ID>
036D890E00000002

> <PUBCHEM_MMFF94_ENERGY>
91.394

> <PUBCHEM_FEATURE_SELFOVERLAP>
45.844

> <PUBCHEM_SHAPE_FINGERPRINT>
10 15 17561359604481972424
10299344 5 18040152907711433794
106641 1 14908181984619486887
11135926 11 18260542299902010335
11315181 36 18333733520650903005
11524674 6 17561081427866748207
11719270 70 18131634465824125494
12082328 90 18412824659736602149
12089408 11 18113901546770534432
12166972 35 17967817167244508020
12236239 1 17894632561134653397
12741549 16 16988847212004831769
13533116 47 17313098615189226248
13885169 127 18413108333842167017
14068700 675 18259705601275464780
14251764 18 17458347429575399068
14856354 85 18334577962734537135
15119646 104 17603581894613312002
15183329 4 16081083788260363000
15328684 2 17970056760861482464
15419008 47 17703503324965083904
15419008 91 18130489878193279448
15461852 350 18409736162060826356
15510794 2 17775568615261892175
1577012 14 17676205740949071960
15849732 13 17847058878949586372
16120349 18 17168429355168839740
17093844 174 17775286050260234985
17686467 74 18336546113891240200
19303781 99 18124587837805188239
19611394 137 17560799978226947570
21267235 1 16271935900477516520
21315759 40 18040155102403000044
21521721 280 14836399251313882326
21623969 137 16630533933599807751
22224240 67 18260265249041872786
23081809 10 17749398069789309068
23522609 53 17678203549498773396
23559900 14 18272083912329557361
249057 25 18114476594845813972
249057 3 18410292515250897461
3178227 256 16415480467661798882
335352 9 16153432748985675674
3418910 222 17918001611163090672
397830 11 17845924264358414904
4325135 7 18040433286981185302
4339292 15 18131060581237318591
44389302 135 18042111078651649466
5104073 3 16557924311536562762
5219985 9 17530964674937407500
54039377 194 17750240352512325755
58902169 19 17676210203457042230
59682541 35 16630524067938972742
5969126 39 16732975414679693157
6081469 158 13334730208029701786
67123 10 18410856573600942324
99344 41 18334574607832608282
9953998 17 17203611506464108671

> <PUBCHEM_SHAPE_MULTIPOLES>
549.55
27.33
1.53
1.32
23.94
0.31
0
6.86
-2.11
-4.88
-0.02
2.33
-0.08
-0.53

> <PUBCHEM_SHAPE_SELFOVERLAP>
1234.641

> <PUBCHEM_SHAPE_VOLUME>
291.4

> <PUBCHEM_COORDINATE_TYPE>
2
5
10

$$$$
57509994
  -OEChem-05102415043D

 47 51  0     0  0  0  0  0  0999 V2000
    2.6991   -1.9460   -0.0822 F   0  0  0  0  0  0  0  0  0  0  0  0
   -2.5641    0.4368    1.9819 O   0  0  0  0  0  0  0  0  0  0  0  0
    7.6058    1.4281    0.0083 O   0  0  0  0  0  0  0  0  0  0  0  0
   -4.2313    0.1378    0.4318 N   0  0  0  0  0  0  0  0  0  0  0  0
   -2.0059    0.2768   -0.2790 N   0  0  0  0  0  0  0  0  0  0  0  0
    4.1202    2.0205   -0.2630 N   0  0  0  0  0  0  0  0  0  0  0  0
    5.4591    2.2022   -0.2117 N   0  0  0  0  0  0  0  0  0  0  0  0
   -5.3014    0.1329    1.4387 C   0  0  0  0  0  0  0  0  0  0  0  0
   -4.7608   -0.0387   -0.9330 C   0  0  0  0  0  0  0  0  0  0  0  0
   -6.5442   -0.0567    0.6360 C   0  0  0  0  0  0  0  0  0  0  0  0
   -6.2344   -0.1556   -0.7256 C   0  0  0  0  0  0  0  0  0  0  0  0
   -7.8523   -0.1369    1.0796 C   0  0  0  0  0  0  0  0  0  0  0  0
   -7.2258   -0.3365   -1.6737 C   0  0  0  0  0  0  0  0  0  0  0  0
   -2.8887    0.2964    0.8014 C   0  0  0  0  0  0  0  0  0  0  0  0
   -8.8604   -0.3195    0.1302 C   0  0  0  0  0  0  0  0  0  0  0  0
   -8.5495   -0.4186   -1.2360 C   0  0  0  0  0  0  0  0  0  0  0  0
   -0.5957    0.4097   -0.2519 C   0  0  0  0  0  0  0  0  0  0  0  0
    2.1808    0.6740   -0.1993 C   0  0  0  0  0  0  0  0  0  0  0  0
    3.6505    0.8145   -0.1702 C   0  0  0  0  0  0  0  0  0  0  0  0
    4.5107   -0.3820   -0.0384 C   0  0  0  0  0  0  0  0  0  0  0  0
    0.0654    0.5836    0.9640 C   0  0  0  0  0  0  0  0  0  0  0  0
    0.1314    0.3681   -1.4416 C   0  0  0  0  0  0  0  0  0  0  0  0
    5.8855   -0.1680    0.0296 C   0  0  0  0  0  0  0  0  0  0  0  0
    1.4536    0.7157    0.9903 C   0  0  0  0  0  0  0  0  0  0  0  0
    1.5197    0.5004   -1.4152 C   0  0  0  0  0  0  0  0  0  0  0  0
    4.0117   -1.6883   -0.0033 C   0  0  0  0  0  0  0  0  0  0  0  0
    6.3997    1.2084   -0.0540 C   0  0  0  0  0  0  0  0  0  0  0  0
    6.7666   -1.2467    0.1570 C   0  0  0  0  0  0  0  0  0  0  0  0
    4.8906   -2.7663    0.1228 C   0  0  0  0  0  0  0  0  0  0  0  0
    6.2643   -2.5461    0.2066 C   0  0  0  0  0  0  0  0  0  0  0  0
   -5.1283   -0.6928    2.1355 H   0  0  0  0  0  0  0  0  0  0  0  0
   -5.2929    1.0899    1.9692 H   0  0  0  0  0  0  0  0  0  0  0  0
   -4.5018    0.8389   -1.5327 H   0  0  0  0  0  0  0  0  0  0  0  0
   -4.3364   -0.9496   -1.3655 H   0  0  0  0  0  0  0  0  0  0  0  0
   -8.0943   -0.0608    2.1341 H   0  0  0  0  0  0  0  0  0  0  0  0
   -6.9875   -0.4133   -2.7290 H   0  0  0  0  0  0  0  0  0  0  0  0
   -9.8968   -0.3859    0.4504 H   0  0  0  0  0  0  0  0  0  0  0  0
   -9.3485   -0.5606   -1.9588 H   0  0  0  0  0  0  0  0  0  0  0  0
   -2.3974    0.1545   -1.2077 H   0  0  0  0  0  0  0  0  0  0  0  0
   -0.4223    0.6264    1.9270 H   0  0  0  0  0  0  0  0  0  0  0  0
   -0.3713    0.2333   -2.3958 H   0  0  0  0  0  0  0  0  0  0  0  0
    1.9601    0.8505    1.9427 H   0  0  0  0  0  0  0  0  0  0  0  0
    2.0767    0.4664   -2.3479 H   0  0  0  0  0  0  0  0  0  0  0  0
    7.8410   -1.0959    0.2134 H   0  0  0  0  0  0  0  0  0  0  0  0
    5.7519    3.1714   -0.2849 H   0  0  0  0  0  0  0  0  0  0  0  0
    4.5016   -3.7800    0.1554 H   0  0  0  0  0  0  0  0  0  0  0  0
    6.9439   -3.3877    0.3042 H   0  0  0  0  0  0  0  0  0  0  0  0
  1 26  1  0  0  0  0
  2 14  2  0  0  0  0
  3 27  2  0  0  0  0
  4  8  1  0  0  0  0
  4  9  1  0  0  0  0
  4 14  1  0  0  0  0
  5 14  1  0  0  0  0
  5 17  1  0  0  0  0
  5 39  1  0  0  0  0
  6  7  1  0  0  0  0
  6 19  2  0  0  0  0
  7 27  1  0  0  0  0
  7 45  1  0  0  0  0
  8 10  1  0  0  0  0
  8 31  1  0  0  0  0
  8 32  1  0  0  0  0
  9 11  1  0  0  0  0
  9 33  1  0  0  0  0
  9 34  1  0  0  0  0
 10 11  1  0  0  0  0
 10 12  2  0  0  0  0
 11 13  2  0  0  0  0
 12 15  1  0  0  0  0
 12 35  1  0  0  0  0
 13 16  1  0  0  0  0
 13 36  1  0  0  0  0
 15 16  2  0  0  0  0
 15 37  1  0  0  0  0
 16 38  1  0  0  0  0
 17 21  2  0  0  0  0
 17 22  1  0  0  0  0
 18 19  1  0  0  0  0
 18 24  2  0  0  0  0
 18 25  1  0  0  0  0
 19 20  1  0  0  0  0
 20 23  2  0  0  0  0
 20 26  1  0  0  0  0
 21 24  1  0  0  0  0
 21 40  1  0  0  0  0
 22 25  2  0  0  0  0
 22 41  1  0  0  0  0
 23 27  1  0  0  0  0
 23 28  1  0  0  0  0
 24 42  1  0  0  0  0
 25 43  1  0  0  0  0
 26 29  2  0  0  0  0
 28 30  2  0  0  0  0
 28 44  1  0  0  0  0
 29 30  1  0  0  0  0
 29 46  1  0  0  0  0
 30 47  1  0  0  0  0
M  END
> <PUBCHEM_COMPOUND_CID>
57509994

> <PUBCHEM_CONFORMER_RMSD>
0.8

> <PUBCHEM_CONFORMER_DIVERSEORDER>
1
21
23
15
20
11
9
18
24
14
6
19
13
17
4
16
22
12
8
5
3
7
2
10

> <PUBCHEM_MMFF94_PARTIAL_CHARGES>
43
1 -0.19
10 -0.14
11 -0.14
12 -0.15
13 -0.15
14 0.69
15 -0.15
16 -0.15
17 0.12
18 0.09
19 0.28
2 -0.57
20 0.09
21 -0.15
22 -0.15
23 0.09
24 -0.15
25 -0.15
26 0.19
27 0.54
28 -0.15
29 -0.15
3 -0.57
30 -0.15
35 0.15
36 0.15
37 0.15
38 0.15
39 0.37
4 -0.66
40 0.15
41 0.15
42 0.15
43 0.15
44 0.15
45 0.37
46 0.15
47 0.15
5 -0.55
6 -0.51
7 -0.37
8 0.44
9 0.44

> <PUBCHEM_EFFECTIVE_ROTOR_COUNT>
4.6

> <PUBCHEM_PHARMACOPHORE_FEATURES>
10
1 2 acceptor
1 3 acceptor
1 5 donor
1 6 acceptor
1 7 donor
5 4 8 9 10 11 rings
6 10 11 12 13 15 16 rings
6 17 18 21 22 24 25 rings
6 20 23 26 28 29 30 rings
6 6 7 19 20 23 27 rings

> <PUBCHEM_HEAVY_ATOM_COUNT>
30

> <PUBCHEM_ATOM_DEF_STEREO_COUNT>
0

> <PUBCHEM_ATOM_UDEF_STEREO_COUNT>
0

> <PUBCHEM_BOND_DEF_STEREO_COUNT>
0

> <PUBCHEM_BOND_UDEF_STEREO_COUNT>
0

> <PUBCHEM_ISOTOPIC_ATOM_COUNT>
0

> <PUBCHEM_COMPONENT_COUNT>
1

> <PUBCHEM_CACTVS_TAUTO_COUNT>
8

> <PUBCHEM_CONFORMER_ID>
036D886A00000001

> <PUBCHEM_MMFF94_ENERGY>
103.3363

> <PUBCHEM_FEATURE_SELFOVERLAP>
50.855

> <PUBCHEM_SHAPE_FINGERPRINT>
10162869 55 18341043116195090916
10165383 225 18336267947073095092
10299344 5 18060419123320030191
10411042 1 18121218676890775754
106641 1 16630518536421860026
10951579 204 16661767652909381879
11719270 70 16917352515351997631
12082328 90 18408603652927451805
12089408 11 17775567538084742073
12236239 1 17917996057864295072
12741549 16 17749380478579984140
13533116 47 18343018874408255602
13617811 41 15502376708021507142
13685833 64 18259988149866670763
13914758 101 18336547123614333825
14068700 675 17131835387229130705
14118638 360 18408888408468288696
14170010 4 18187086165548480244
14251764 18 17918274259959771151
14294032 229 16486705688358495009
14400156 413 18336818775569244612
150020 25 17749106673738850599
15119646 104 18201441350563716459
15183329 4 18411978062101722259
15198563 99 17531523166656883861
15328684 2 17417538995017546171
15419008 47 17458337555261678493
15419008 91 17241033410110982845
15510794 2 18040436608114505587
1577012 14 17988933245068843137
15840311 113 17561080350589624848
15849732 13 17748826332649265735
16120349 18 18410008870571858356
19315958 150 18260271879891050954
20157964 124 18408887352174962852
20165401 70 18200592497665520278
20771845 140 16845285000462420398
21344244 78 18059284371944774176
23081809 10 18131357397272642921
23516275 137 17916045515457977311
23522609 53 17773623626875633217
23559900 14 18336545036096711137
23569943 247 17315629591407572834
23576562 1 14057591005953219895
335352 9 18410580574950432782
3383291 50 16950290620141029649
3633792 109 18334011658200427225
4073 2 18114749351027974378
4098825 35 18337389340899757017
4325135 7 17060342937751345269
44880568 143 17313101917571100357
5219985 9 17632576059382805513
59682541 35 14908173171104041071
59755656 215 16950280685359583467
6081469 158 17168143404498712758

> <PUBCHEM_SHAPE_MULTIPOLES>
578.45
27.37
1.81
1.28
33.46
0.82
0
4.9
-1.53
-5.74
0
2.36
-0.1
-0.74

> <PUBCHEM_SHAPE_SELFOVERLAP>
1299.247

> <PUBCHEM_SHAPE_VOLUME>
305.1

> <PUBCHEM_COORDINATE_TYPE>
2
5
10

$$$$
57510006
  -OEChem-05102415043D

 65 69  0     0  0  0  0  0  0999 V2000
   -0.6094    0.2220   -1.9544 O   0  0  0  0  0  0  0  0  0  0  0  0
    9.7365    1.0001   -0.3148 O   0  0  0  0  0  0  0  0  0  0  0  0
   -2.2450    0.4985   -0.3670 N   0  0  0  0  0  0  0  0  0  0  0  0
   -8.9478   -0.7446    0.0741 N   0  0  0  0  0  0  0  0  0  0  0  0
    0.0059    0.6040    0.2647 N   0  0  0  0  0  0  0  0  0  0  0  0
    7.6122    1.8803   -0.3549 N   0  0  0  0  0  0  0  0  0  0  0  0
   -4.5716    0.4802   -0.4944 C   0  0  0  0  0  0  0  0  0  0  0  0
   -4.2273    0.7114    0.8427 C   0  0  0  0  0  0  0  0  0  0  0  0
   -3.3438    0.3329   -1.3285 C   0  0  0  0  0  0  0  0  0  0  0  0
   -2.7432    0.7353    1.0005 C   0  0  0  0  0  0  0  0  0  0  0  0
   -6.8839    0.5857    0.0807 C   0  0  0  0  0  0  0  0  0  0  0  0
   -5.8954    0.4148   -0.8910 C   0  0  0  0  0  0  0  0  0  0  0  0
   -5.1991    0.8824    1.8126 C   0  0  0  0  0  0  0  0  0  0  0  0
   -8.3232    0.5220   -0.3093 C   0  0  0  0  0  0  0  0  0  0  0  0
   -6.5384    0.8179    1.4222 C   0  0  0  0  0  0  0  0  0  0  0  0
   -0.9066    0.4259   -0.7759 C   0  0  0  0  0  0  0  0  0  0  0  0
  -10.3680   -0.7388   -0.2735 C   0  0  0  0  0  0  0  0  0  0  0  0
   -8.2670   -1.8654   -0.5722 C   0  0  0  0  0  0  0  0  0  0  0  0
    1.4205    0.5893    0.1924 C   0  0  0  0  0  0  0  0  0  0  0  0
  -11.1029    0.3846    0.4380 C   0  0  0  0  0  0  0  0  0  0  0  0
   -8.9022   -3.1904   -0.1857 C   0  0  0  0  0  0  0  0  0  0  0  0
    4.2065    0.5595    0.0507 C   0  0  0  0  0  0  0  0  0  0  0  0
    5.6591    0.5440   -0.0233 C   0  0  0  0  0  0  0  0  0  0  0  0
    2.1796    0.7852    1.3462 C   0  0  0  0  0  0  0  0  0  0  0  0
    2.0544    0.3786   -1.0322 C   0  0  0  0  0  0  0  0  0  0  0  0
    6.5436   -0.6381    0.1322 C   0  0  0  0  0  0  0  0  0  0  0  0
    3.5726    0.7702    1.2753 C   0  0  0  0  0  0  0  0  0  0  0  0
    3.4473    0.3639   -1.1030 C   0  0  0  0  0  0  0  0  0  0  0  0
    7.9395   -0.4944    0.0347 C   0  0  0  0  0  0  0  0  0  0  0  0
    6.2539    1.7291   -0.2574 C   0  0  0  0  0  0  0  0  0  0  0  0
    6.0196   -1.9163    0.3762 C   0  0  0  0  0  0  0  0  0  0  0  0
    8.5226    0.8466   -0.2252 C   0  0  0  0  0  0  0  0  0  0  0  0
    8.7877   -1.5988    0.1785 C   0  0  0  0  0  0  0  0  0  0  0  0
    6.8666   -3.0181    0.5197 C   0  0  0  0  0  0  0  0  0  0  0  0
    8.2467   -2.8596    0.4212 C   0  0  0  0  0  0  0  0  0  0  0  0
   -3.2692   -0.6592   -1.7841 H   0  0  0  0  0  0  0  0  0  0  0  0
   -3.2661    1.1121   -2.0928 H   0  0  0  0  0  0  0  0  0  0  0  0
   -2.3856    1.7095    1.3470 H   0  0  0  0  0  0  0  0  0  0  0  0
   -2.3896   -0.0682    1.6533 H   0  0  0  0  0  0  0  0  0  0  0  0
   -6.1491    0.2346   -1.9307 H   0  0  0  0  0  0  0  0  0  0  0  0
   -4.9340    1.0617    2.8488 H   0  0  0  0  0  0  0  0  0  0  0  0
   -8.8002    1.3754    0.1865 H   0  0  0  0  0  0  0  0  0  0  0  0
   -8.4334    0.7058   -1.3874 H   0  0  0  0  0  0  0  0  0  0  0  0
   -7.3136    0.9500    2.1734 H   0  0  0  0  0  0  0  0  0  0  0  0
  -10.5267   -0.6595   -1.3564 H   0  0  0  0  0  0  0  0  0  0  0  0
  -10.8559   -1.6585    0.0645 H   0  0  0  0  0  0  0  0  0  0  0  0
   -8.2623   -1.7686   -1.6655 H   0  0  0  0  0  0  0  0  0  0  0  0
   -7.2253   -1.9305   -0.2404 H   0  0  0  0  0  0  0  0  0  0  0  0
   -0.3644    0.7645    1.1962 H   0  0  0  0  0  0  0  0  0  0  0  0
  -12.1839    0.2202    0.3627 H   0  0  0  0  0  0  0  0  0  0  0  0
  -10.9075    1.3636   -0.0100 H   0  0  0  0  0  0  0  0  0  0  0  0
  -10.8537    0.4233    1.5041 H   0  0  0  0  0  0  0  0  0  0  0  0
   -8.2377   -4.0121   -0.4766 H   0  0  0  0  0  0  0  0  0  0  0  0
   -9.8524   -3.3663   -0.6994 H   0  0  0  0  0  0  0  0  0  0  0  0
   -9.0585   -3.2680    0.8958 H   0  0  0  0  0  0  0  0  0  0  0  0
    1.6982    0.9500    2.3067 H   0  0  0  0  0  0  0  0  0  0  0  0
    1.5412    0.2194   -1.9693 H   0  0  0  0  0  0  0  0  0  0  0  0
    4.1498    0.9234    2.1841 H   0  0  0  0  0  0  0  0  0  0  0  0
    3.9273    0.1975   -2.0647 H   0  0  0  0  0  0  0  0  0  0  0  0
    5.6966    2.6516   -0.3859 H   0  0  0  0  0  0  0  0  0  0  0  0
    4.9481   -2.0799    0.4595 H   0  0  0  0  0  0  0  0  0  0  0  0
    7.9649    2.8161   -0.5336 H   0  0  0  0  0  0  0  0  0  0  0  0
    9.8668   -1.4964    0.1047 H   0  0  0  0  0  0  0  0  0  0  0  0
    6.4464   -4.0019    0.7087 H   0  0  0  0  0  0  0  0  0  0  0  0
    8.9012   -3.7190    0.5333 H   0  0  0  0  0  0  0  0  0  0  0  0
  1 16  2  0  0  0  0
  2 32  2  0  0  0  0
  3  9  1  0  0  0  0
  3 10  1  0  0  0  0
  3 16  1  0  0  0  0
  4 14  1  0  0  0  0
  4 17  1  0  0  0  0
  4 18  1  0  0  0  0
  5 16  1  0  0  0  0
  5 19  1  0  0  0  0
  5 49  1  0  0  0  0
  6 30  1  0  0  0  0
  6 32  1  0  0  0  0
  6 62  1  0  0  0  0
  7  8  2  0  0  0  0
  7  9  1  0  0  0  0
  7 12  1  0  0  0  0
  8 10  1  0  0  0  0
  8 13  1  0  0  0  0
  9 36  1  0  0  0  0
  9 37  1  0  0  0  0
 10 38  1  0  0  0  0
 10 39  1  0  0  0  0
 11 12  2  0  0  0  0
 11 14  1  0  0  0  0
 11 15  1  0  0  0  0
 12 40  1  0  0  0  0
 13 15  2  0  0  0  0
 13 41  1  0  0  0  0
 14 42  1  0  0  0  0
 14 43  1  0  0  0  0
 15 44  1  0  0  0  0
 17 20  1  0  0  0  0
 17 45  1  0  0  0  0
 17 46  1  0  0  0  0
 18 21  1  0  0  0  0
 18 47  1  0  0  0  0
 18 48  1  0  0  0  0
 19 24  2  0  0  0  0
 19 25  1  0  0  0  0
 20 50  1  0  0  0  0
 20 51  1  0  0  0  0
 20 52  1  0  0  0  0
 21 53  1  0  0  0  0
 21 54  1  0  0  0  0
 21 55  1  0  0  0  0
 22 23  1  0  0  0  0
 22 27  2  0  0  0  0
 22 28  1  0  0  0  0
 23 26  1  0  0  0  0
 23 30  2  0  0  0  0
 24 27  1  0  0  0  0
 24 56  1  0  0  0  0
 25 28  2  0  0  0  0
 25 57  1  0  0  0  0
 26 29  1  0  0  0  0
 26 31  2  0  0  0  0
 27 58  1  0  0  0  0
 28 59  1  0  0  0  0
 29 32  1  0  0  0  0
 29 33  2  0  0  0  0
 30 60  1  0  0  0  0
 31 34  1  0  0  0  0
 31 61  1  0  0  0  0
 33 35  1  0  0  0  0
 33 63  1  0  0  0  0
 34 35  2  0  0  0  0
 34 64  1  0  0  0  0
 35 65  1  0  0  0  0
M  END
> <PUBCHEM_COMPOUND_CID>
57510006

> <PUBCHEM_CONFORMER_RMSD>
1

> <PUBCHEM_CONFORMER_DIVERSEORDER>
1
125
69
21
39
15
126
8
130
71
41
152
55
91
61
147
143
89
129
112
144
141
83
151
57
113
159
85
139
66
2
122
102
90
67
153
101
94
47
30
70
114
3
40
82
106
58
155
145
146
12
110
137
45
142
81
4
72
64
160
20
92
116
53
7
134
60
51
49
140
93
117
119
78
73
123
26
88
17
105
138
29
36
128
150
42
131
52
109
132
25
149
32
133
121
118
107
16
158
157
84
75
103
35
38
99
28
27
115
24
86
104
14
34
65
77
124
6
111
95
135
37
62
97
63
96
50
87
43
46
31
56
48
13
59
80
100
79
33
108
127
23
54
136
10
44
68
5
154
18
11
98
156
74
148
120
19
9
22
76

> <PUBCHEM_MMFF94_PARTIAL_CHARGES>
47
1 -0.57
10 0.44
11 -0.14
12 -0.15
13 -0.15
14 0.41
15 -0.15
16 0.69
17 0.27
18 0.27
19 0.12
2 -0.57
22 0.03
23 -0.06
24 -0.15
25 -0.15
26 0.03
27 -0.15
28 -0.15
29 0.09
3 -0.66
30 -0.04
31 -0.15
32 0.54
33 -0.15
34 -0.15
35 -0.15
4 -0.81
40 0.15
41 0.15
44 0.15
49 0.37
5 -0.55
56 0.15
57 0.15
58 0.15
59 0.15
6 -0.54
60 0.15
61 0.15
62 0.37
63 0.15
64 0.15
65 0.15
7 -0.14
8 -0.14
9 0.44

> <PUBCHEM_EFFECTIVE_ROTOR_COUNT>
8.6

> <PUBCHEM_PHARMACOPHORE_FEATURES>
10
1 1 acceptor
1 2 acceptor
1 4 cation
1 5 donor
1 6 donor
5 3 7 8 9 10 rings
6 19 22 24 25 27 28 rings
6 26 29 31 33 34 35 rings
6 6 23 26 29 30 32 rings
6 7 8 11 12 13 15 rings

> <PUBCHEM_HEAVY_ATOM_COUNT>
35

> <PUBCHEM_ATOM_DEF_STEREO_COUNT>
0

> <PUBCHEM_ATOM_UDEF_STEREO_COUNT>
0

> <PUBCHEM_BOND_DEF_STEREO_COUNT>
0

> <PUBCHEM_BOND_UDEF_STEREO_COUNT>
0

> <PUBCHEM_ISOTOPIC_ATOM_COUNT>
0

> <PUBCHEM_COMPONENT_COUNT>
1

> <PUBCHEM_CACTVS_TAUTO_COUNT>
4

> <PUBCHEM_CONFORMER_ID>
036D887600000001

> <PUBCHEM_MMFF94_ENERGY>
107.149

> <PUBCHEM_FEATURE_SELFOVERLAP>
50.854

> <PUBCHEM_SHAPE_FINGERPRINT>
10050765 1 16413768618119990856
10076449 9 14634866453950069599
10299344 5 18201718449216483980
10580692 12 18334012787998703316
11135609 127 18041847337489278428
11408170 108 18114186290086047563
11456790 92 16128657470599217091
11638347 137 18410293597144455303
12013929 2 18410570670676713637
12082328 90 18408600336664365813
12089408 11 18343304751499864121
12133447 93 16009306496435795038
12838862 33 15213290975894655465
13560911 43 17346881147684469760
13617811 41 15140965020475260510
13947947 19 15574721326281714787
14040222 383 17704352190727686775
14117953 113 15936413342364713783
14118638 360 15574703656554241337
14251764 18 17775002375859432776
14251764 46 16081085991879597293
14415361 349 17385723621219748683
150020 25 17385446488565003074
15061470 23 18409165502968974869
15065858 18 18260544516020329949
15183329 4 17489588957230514224
15198563 99 16660923266592095412
15247644 1 18411700967507259774
15328684 2 17487904410753701002
15392192 104 17846501435476450998
15461852 350 18260546741166797525
15510794 2 17894632547642999218
15840311 113 18114465656191722172
16120349 18 18334859437832729324
16728433 110 18060414738512453528
19301679 30 17702106864310112998
19611394 137 17631733919680930955
20105231 36 17385726863887875706
2026 5 18043244644321013506
21095086 128 18409165506772578235
21362267 20 18411698825083781807
21362267 313 17988087664771240417
21792934 111 13039184810212671066
232437 2 18410856564483331159
23522609 53 17988099862880145544
24893992 56 16773790424996539431
249057 3 15357701911629649829
3092352 35 18131634487467383646
335352 9 14562531791556110361
4017518 198 17603308155073597483
45377200 153 18187646955292290091
4625314 4 18333731343144584773
504579 68 14851608782401602423
59520647 119 18261114118588878154
67123 10 18409729577728495933
9663363 56 16298385777812327140
9962374 69 18187642548285838228

> <PUBCHEM_SHAPE_MULTIPOLES>
688.62
41.42
2.18
1.22
31.65
2.42
0.08
15.49
1.22
-2.49
0.23
0.95
-0.28
-2.01

> <PUBCHEM_SHAPE_SELFOVERLAP>
1507.46

> <PUBCHEM_SHAPE_VOLUME>
373.9

> <PUBCHEM_COORDINATE_TYPE>
2
5
10

$$$$
57509996
  -OEChem-05102415043D

 62 67  0     0  0  0  0  0  0999 V2000
    0.5854    0.3704   -1.8067 O   0  0  0  0  0  0  0  0  0  0  0  0
   -9.5726    1.6368    0.0655 O   0  0  0  0  0  0  0  0  0  0  0  0
    9.0010    0.0489    0.0833 N   0  0  0  0  0  0  0  0  0  0  0  0
    2.1898   -0.2298   -0.2780 N   0  0  0  0  0  0  0  0  0  0  0  0
   -0.0451   -0.0681    0.3976 N   0  0  0  0  0  0  0  0  0  0  0  0
   -6.0706    1.9941    0.4919 N   0  0  0  0  0  0  0  0  0  0  0  0
   -7.3963    2.2543    0.4379 N   0  0  0  0  0  0  0  0  0  0  0  0
   10.4017   -0.0546   -0.3254 C   0  0  0  0  0  0  0  0  0  0  0  0
    8.5330    1.3139   -0.4825 C   0  0  0  0  0  0  0  0  0  0  0  0
   10.9242    1.3589   -0.1142 C   0  0  0  0  0  0  0  0  0  0  0  0
    9.6955    2.2578   -0.2138 C   0  0  0  0  0  0  0  0  0  0  0  0
    8.2069   -1.0865   -0.3619 C   0  0  0  0  0  0  0  0  0  0  0  0
    6.7784   -0.9785    0.0564 C   0  0  0  0  0  0  0  0  0  0  0  0
    4.4946   -0.5210   -0.4575 C   0  0  0  0  0  0  0  0  0  0  0  0
    4.1408   -0.7899    0.8701 C   0  0  0  0  0  0  0  0  0  0  0  0
    3.2870   -0.1533   -1.2522 C   0  0  0  0  0  0  0  0  0  0  0  0
    2.6699   -0.6213    1.0602 C   0  0  0  0  0  0  0  0  0  0  0  0
    5.8090   -0.6111   -0.8797 C   0  0  0  0  0  0  0  0  0  0  0  0
    6.4233   -1.2484    1.3882 C   0  0  0  0  0  0  0  0  0  0  0  0
    5.0934   -1.1550    1.8046 C   0  0  0  0  0  0  0  0  0  0  0  0
    0.8683    0.0513   -0.6505 C   0  0  0  0  0  0  0  0  0  0  0  0
   -1.4451    0.1441    0.3590 C   0  0  0  0  0  0  0  0  0  0  0  0
   -2.0613    0.5185   -0.8351 C   0  0  0  0  0  0  0  0  0  0  0  0
   -2.2073   -0.0197    1.5157 C   0  0  0  0  0  0  0  0  0  0  0  0
   -4.2019    0.5648    0.2842 C   0  0  0  0  0  0  0  0  0  0  0  0
   -3.4396    0.7288   -0.8725 C   0  0  0  0  0  0  0  0  0  0  0  0
   -3.5857    0.1907    1.4783 C   0  0  0  0  0  0  0  0  0  0  0  0
   -5.6609    0.7882    0.2434 C   0  0  0  0  0  0  0  0  0  0  0  0
   -6.5773   -0.3299   -0.0704 C   0  0  0  0  0  0  0  0  0  0  0  0
   -7.9368   -0.0334   -0.1378 C   0  0  0  0  0  0  0  0  0  0  0  0
   -6.1453   -1.6446   -0.2745 C   0  0  0  0  0  0  0  0  0  0  0  0
   -8.3818    1.3446    0.1236 C   0  0  0  0  0  0  0  0  0  0  0  0
   -8.8681   -1.0348   -0.4314 C   0  0  0  0  0  0  0  0  0  0  0  0
   -7.0745   -2.6454   -0.5670 C   0  0  0  0  0  0  0  0  0  0  0  0
   -8.4321   -2.3408   -0.6489 C   0  0  0  0  0  0  0  0  0  0  0  0
   10.4984   -0.3297   -1.3835 H   0  0  0  0  0  0  0  0  0  0  0  0
   10.9547   -0.7827    0.2762 H   0  0  0  0  0  0  0  0  0  0  0  0
    7.6202    1.6854   -0.0060 H   0  0  0  0  0  0  0  0  0  0  0  0
    8.3632    1.2411   -1.5647 H   0  0  0  0  0  0  0  0  0  0  0  0
   11.3794    1.4619    0.8779 H   0  0  0  0  0  0  0  0  0  0  0  0
   11.6809    1.6226   -0.8599 H   0  0  0  0  0  0  0  0  0  0  0  0
    9.8011    3.0020   -1.0097 H   0  0  0  0  0  0  0  0  0  0  0  0
    9.5518    2.7943    0.7315 H   0  0  0  0  0  0  0  0  0  0  0  0
    8.6193   -2.0117    0.0631 H   0  0  0  0  0  0  0  0  0  0  0  0
    8.2705   -1.2132   -1.4517 H   0  0  0  0  0  0  0  0  0  0  0  0
    3.3434    0.8673   -1.6427 H   0  0  0  0  0  0  0  0  0  0  0  0
    3.0920   -0.8630   -2.0619 H   0  0  0  0  0  0  0  0  0  0  0  0
    2.1865   -1.5581    1.3529 H   0  0  0  0  0  0  0  0  0  0  0  0
    2.4396    0.1786    1.7702 H   0  0  0  0  0  0  0  0  0  0  0  0
    6.0703   -0.3993   -1.9115 H   0  0  0  0  0  0  0  0  0  0  0  0
    7.1835   -1.5343    2.1115 H   0  0  0  0  0  0  0  0  0  0  0  0
    4.8209   -1.3638    2.8333 H   0  0  0  0  0  0  0  0  0  0  0  0
    0.3128   -0.3378    1.3085 H   0  0  0  0  0  0  0  0  0  0  0  0
   -1.5448    0.6656   -1.7724 H   0  0  0  0  0  0  0  0  0  0  0  0
   -1.7397   -0.3109    2.4528 H   0  0  0  0  0  0  0  0  0  0  0  0
   -3.9110    1.0202   -1.8077 H   0  0  0  0  0  0  0  0  0  0  0  0
   -4.1701    0.0603    2.3854 H   0  0  0  0  0  0  0  0  0  0  0  0
   -5.0960   -1.9177   -0.2191 H   0  0  0  0  0  0  0  0  0  0  0  0
   -9.9313   -0.8190   -0.4894 H   0  0  0  0  0  0  0  0  0  0  0  0
   -7.6408    3.2189    0.6379 H   0  0  0  0  0  0  0  0  0  0  0  0
   -6.7375   -3.6650   -0.7312 H   0  0  0  0  0  0  0  0  0  0  0  0
   -9.1510   -3.1226   -0.8763 H   0  0  0  0  0  0  0  0  0  0  0  0
  1 21  2  0  0  0  0
  2 32  2  0  0  0  0
  3  8  1  0  0  0  0
  3  9  1  0  0  0  0
  3 12  1  0  0  0  0
  4 16  1  0  0  0  0
  4 17  1  0  0  0  0
  4 21  1  0  0  0  0
  5 21  1  0  0  0  0
  5 22  1  0  0  0  0
  5 53  1  0  0  0  0
  6  7  1  0  0  0  0
  6 28  2  0  0  0  0
  7 32  1  0  0  0  0
  7 60  1  0  0  0  0
  8 10  1  0  0  0  0
  8 36  1  0  0  0  0
  8 37  1  0  0  0  0
  9 11  1  0  0  0  0
  9 38  1  0  0  0  0
  9 39  1  0  0  0  0
 10 11  1  0  0  0  0
 10 40  1  0  0  0  0
 10 41  1  0  0  0  0
 11 42  1  0  0  0  0
 11 43  1  0  0  0  0
 12 13  1  0  0  0  0
 12 44  1  0  0  0  0
 12 45  1  0  0  0  0
 13 18  2  0  0  0  0
 13 19  1  0  0  0  0
 14 15  2  0  0  0  0
 14 16  1  0  0  0  0
 14 18  1  0  0  0  0
 15 17  1  0  0  0  0
 15 20  1  0  0  0  0
 16 46  1  0  0  0  0
 16 47  1  0  0  0  0
 17 48  1  0  0  0  0
 17 49  1  0  0  0  0
 18 50  1  0  0  0  0
 19 20  2  0  0  0  0
 19 51  1  0  0  0  0
 20 52  1  0  0  0  0
 22 23  2  0  0  0  0
 22 24  1  0  0  0  0
 23 26  1  0  0  0  0
 23 54  1  0  0  0  0
 24 27  2  0  0  0  0
 24 55  1  0  0  0  0
 25 26  2  0  0  0  0
 25 27  1  0  0  0  0
 25 28  1  0  0  0  0
 26 56  1  0  0  0  0
 27 57  1  0  0  0  0
 28 29  1  0  0  0  0
 29 30  1  0  0  0  0
 29 31  2  0  0  0  0
 30 32  1  0  0  0  0
 30 33  2  0  0  0  0
 31 34  1  0  0  0  0
 31 58  1  0  0  0  0
 33 35  1  0  0  0  0
 33 59  1  0  0  0  0
 34 35  2  0  0  0  0
 34 61  1  0  0  0  0
 35 62  1  0  0  0  0
M  END
> <PUBCHEM_COMPOUND_CID>
57509996

> <PUBCHEM_CONFORMER_RMSD>
1

> <PUBCHEM_CONFORMER_DIVERSEORDER>
1
87
56
80
101
46
88
29
78
100
47
96
89
11
90
44
74
61
75
20
19
109
91
99
114
9
97
113
111
106
83
110
50
93
57
49
23
73
53
69
64
94
30
72
92
103
55
84
65
102
104
112
54
10
33
76
6
81
95
38
67
3
108
25
40
70
85
31
16
86
24
59
43
107
8
58
2
79
36
35
105
71
115
62
51
48
68
21
32
98
27
7
82
52
37
34
66
28
63
45
42
14
12
41
5
4
17
77
22
60
18
39
13
15
26

> <PUBCHEM_MMFF94_PARTIAL_CHARGES>
46
1 -0.57
12 0.41
13 -0.14
14 -0.14
15 -0.14
16 0.44
17 0.44
18 -0.15
19 -0.15
2 -0.57
20 -0.15
21 0.69
22 0.12
23 -0.15
24 -0.15
25 0.09
26 -0.15
27 -0.15
28 0.28
29 0.09
3 -0.81
30 0.09
31 -0.15
32 0.54
33 -0.15
34 -0.15
35 -0.15
4 -0.66
5 -0.55
50 0.15
51 0.15
52 0.15
53 0.37
54 0.15
55 0.15
56 0.15
57 0.15
58 0.15
59 0.15
6 -0.51
60 0.37
61 0.15
62 0.15
7 -0.37
8 0.27
9 0.27

> <PUBCHEM_EFFECTIVE_ROTOR_COUNT>
7.6

> <PUBCHEM_PHARMACOPHORE_FEATURES>
12
1 1 acceptor
1 2 acceptor
1 3 cation
1 5 donor
1 6 acceptor
1 7 donor
5 3 8 9 10 11 rings
5 4 14 15 16 17 rings
6 13 14 15 18 19 20 rings
6 22 23 24 25 26 27 rings
6 29 30 31 33 34 35 rings
6 6 7 28 29 30 32 rings

> <PUBCHEM_HEAVY_ATOM_COUNT>
35

> <PUBCHEM_ATOM_DEF_STEREO_COUNT>
0

> <PUBCHEM_ATOM_UDEF_STEREO_COUNT>
0

> <PUBCHEM_BOND_DEF_STEREO_COUNT>
0

> <PUBCHEM_BOND_UDEF_STEREO_COUNT>
0

> <PUBCHEM_ISOTOPIC_ATOM_COUNT>
0

> <PUBCHEM_COMPONENT_COUNT>
1

> <PUBCHEM_CACTVS_TAUTO_COUNT>
6

> <PUBCHEM_CONFORMER_ID>
036D886C00000001

> <PUBCHEM_MMFF94_ENERGY>
113.224

> <PUBCHEM_FEATURE_SELFOVERLAP>
61.006

> <PUBCHEM_SHAPE_FINGERPRINT>
10 15 17131829854936225639
10162869 55 17385442155022350006
10299344 5 18187082832717200979
10391435 84 16298392378934065536
11135926 11 16515402950849887395
11315181 36 18272937111829993145
12013929 94 18271807964538211847
12082328 90 18272369737633047429
12089408 11 18408602539750278538
12098696 120 14418131803602739128
12144603 126 18334294266510576634
12522641 33 18410855434702210814
12664476 115 13326854418676379682
12838862 33 16081363077357299978
13383668 251 18115859871079150484
14118638 360 15769503023513864014
14251764 46 18413389825956425478
14856354 85 9150877396832870153
150020 25 17632573847062931299
15061470 23 18412543198251837720
15065858 18 18413388718187347998
15145343 6 17704352190552912736
15183329 4 16370720427384589899
15392192 104 18202845453299739566
15461852 350 18342177773556113235
15510794 2 18060143115863522846
15840311 113 18335424582967912212
16120349 18 17967534606263076396
16728433 110 17894351098658015373
1754911 235 18334857221096399858
17686467 74 18412542141262647849
19611394 137 17131547345147112707
20105231 36 15769777966156489694
21095123 145 17561079233222329503
21362267 2 17560501981519411064
21362267 313 18263640659396931314
232437 2 18411419501921486046
24771293 8 18113621166156059228
3092352 35 18202001028696524974
395649 100 18187366579790276963
397830 11 17631155546199146035
4339292 15 17845925321981082423
44280117 145 18342738542699876263
4625314 4 18343582962264162134
4874694 18 16298104289908439378
5028188 123 18410570700429943007
57676310 188 18260545598453251083
6057620 51 18342740698341059458
6126387 218 18186520994796416445
6691757 9 18261967292920643795
67123 10 18412826893646960582
9663363 56 16225765212746899197

> <PUBCHEM_SHAPE_MULTIPOLES>
683.64
41.67
1.93
1.22
32.98
0.03
0.23
6.26
-3.53
-2.69
-0.06
0.64
-0.21
-2.21

> <PUBCHEM_SHAPE_SELFOVERLAP>
1517.123

> <PUBCHEM_SHAPE_VOLUME>
367.2

> <PUBCHEM_COORDINATE_TYPE>
2
5
10

$$$$
57510011
  -OEChem-05102415043D

 66 71  0     0  0  0  0  0  0999 V2000
   -7.5036    0.9648   -0.1375 O   0  0  0  0  0  0  0  0  0  0  0  0
   -0.0403   -0.2038    1.7160 O   0  0  0  0  0  0  0  0  0  0  0  0
   10.3213    0.3169    0.9038 O   0  0  0  0  0  0  0  0  0  0  0  0
  -10.3691   -2.1000    0.4339 N   0  0  0  0  0  0  0  0  0  0  0  0
   -1.5695    0.6501    0.2315 N   0  0  0  0  0  0  0  0  0  0  0  0
    0.7174    0.8571   -0.2202 N   0  0  0  0  0  0  0  0  0  0  0  0
    6.9554    1.4318    0.9314 N   0  0  0  0  0  0  0  0  0  0  0  0
    8.2942    1.3680    1.1090 N   0  0  0  0  0  0  0  0  0  0  0  0
   -8.0248   -0.3519   -0.0083 C   0  0  0  0  0  0  0  0  0  0  0  0
   -8.6389   -0.5355    1.3773 C   0  0  0  0  0  0  0  0  0  0  0  0
   -9.0713   -0.5805   -1.0949 C   0  0  0  0  0  0  0  0  0  0  0  0
   -9.3698   -1.8747    1.4872 C   0  0  0  0  0  0  0  0  0  0  0  0
   -9.7872   -1.9186   -0.9028 C   0  0  0  0  0  0  0  0  0  0  0  0
   -3.8991    0.6939    0.2329 C   0  0  0  0  0  0  0  0  0  0  0  0
   -3.4689    1.3337   -0.9357 C   0  0  0  0  0  0  0  0  0  0  0  0
   -2.7281    0.2295    1.0315 C   0  0  0  0  0  0  0  0  0  0  0  0
   -6.1693    1.0799   -0.3890 C   0  0  0  0  0  0  0  0  0  0  0  0
   -1.9780    1.3440   -1.0038 C   0  0  0  0  0  0  0  0  0  0  0  0
  -11.5692   -1.2896    0.6287 C   0  0  0  0  0  0  0  0  0  0  0  0
   -5.2458    0.5591    0.5202 C   0  0  0  0  0  0  0  0  0  0  0  0
   -4.3759    1.8526   -1.8427 C   0  0  0  0  0  0  0  0  0  0  0  0
   -5.7375    1.7217   -1.5616 C   0  0  0  0  0  0  0  0  0  0  0  0
   -0.2604    0.3882    0.6578 C   0  0  0  0  0  0  0  0  0  0  0  0
    2.1243    0.7569   -0.0883 C   0  0  0  0  0  0  0  0  0  0  0  0
    2.6774    0.1271    1.0266 C   0  0  0  0  0  0  0  0  0  0  0  0
    2.9564    1.2896   -1.0730 C   0  0  0  0  0  0  0  0  0  0  0  0
    4.8949    0.5623    0.1720 C   0  0  0  0  0  0  0  0  0  0  0  0
    4.0627    0.0297    1.1568 C   0  0  0  0  0  0  0  0  0  0  0  0
    4.3418    1.1923   -0.9427 C   0  0  0  0  0  0  0  0  0  0  0  0
    6.3613    0.4591    0.3113 C   0  0  0  0  0  0  0  0  0  0  0  0
    7.0815   -0.7101   -0.2393 C   0  0  0  0  0  0  0  0  0  0  0  0
    8.4575   -0.7621   -0.0282 C   0  0  0  0  0  0  0  0  0  0  0  0
    6.4543   -1.7283   -0.9650 C   0  0  0  0  0  0  0  0  0  0  0  0
    9.1115    0.3383    0.6977 C   0  0  0  0  0  0  0  0  0  0  0  0
    9.2104   -1.8354   -0.5152 C   0  0  0  0  0  0  0  0  0  0  0  0
    7.2051   -2.8002   -1.4523 C   0  0  0  0  0  0  0  0  0  0  0  0
    8.5791   -2.8557   -1.2250 C   0  0  0  0  0  0  0  0  0  0  0  0
   -7.2379   -1.1084   -0.1430 H   0  0  0  0  0  0  0  0  0  0  0  0
   -7.8557   -0.4782    2.1424 H   0  0  0  0  0  0  0  0  0  0  0  0
   -9.3207    0.2958    1.5969 H   0  0  0  0  0  0  0  0  0  0  0  0
   -9.7928    0.2463   -1.1015 H   0  0  0  0  0  0  0  0  0  0  0  0
   -8.5896   -0.5547   -2.0802 H   0  0  0  0  0  0  0  0  0  0  0  0
   -8.6315   -2.6858    1.4389 H   0  0  0  0  0  0  0  0  0  0  0  0
   -9.8351   -1.9628    2.4767 H   0  0  0  0  0  0  0  0  0  0  0  0
  -10.5594   -2.0394   -1.6725 H   0  0  0  0  0  0  0  0  0  0  0  0
   -9.0709   -2.7319   -1.0785 H   0  0  0  0  0  0  0  0  0  0  0  0
   -2.6765    0.7138    2.0113 H   0  0  0  0  0  0  0  0  0  0  0  0
   -2.7067   -0.8590    1.1408 H   0  0  0  0  0  0  0  0  0  0  0  0
   -1.6053    0.7849   -1.8671 H   0  0  0  0  0  0  0  0  0  0  0  0
   -1.5762    2.3615   -0.9911 H   0  0  0  0  0  0  0  0  0  0  0  0
  -12.0223   -1.5070    1.6024 H   0  0  0  0  0  0  0  0  0  0  0  0
  -12.3240   -1.5385   -0.1256 H   0  0  0  0  0  0  0  0  0  0  0  0
  -11.3791   -0.2130    0.5758 H   0  0  0  0  0  0  0  0  0  0  0  0
   -5.5633    0.0689    1.4341 H   0  0  0  0  0  0  0  0  0  0  0  0
   -4.0443    2.3481   -2.7486 H   0  0  0  0  0  0  0  0  0  0  0  0
   -6.4679    2.1216   -2.2606 H   0  0  0  0  0  0  0  0  0  0  0  0
    0.4083    1.3314   -1.0628 H   0  0  0  0  0  0  0  0  0  0  0  0
    2.1048   -0.3103    1.8314 H   0  0  0  0  0  0  0  0  0  0  0  0
    2.5384    1.7831   -1.9466 H   0  0  0  0  0  0  0  0  0  0  0  0
    4.4846   -0.4630    2.0291 H   0  0  0  0  0  0  0  0  0  0  0  0
    4.9811    1.6108   -1.7157 H   0  0  0  0  0  0  0  0  0  0  0  0
    5.3864   -1.7179   -1.1603 H   0  0  0  0  0  0  0  0  0  0  0  0
   10.2838   -1.8913   -0.3571 H   0  0  0  0  0  0  0  0  0  0  0  0
    8.6875    2.1606    1.6064 H   0  0  0  0  0  0  0  0  0  0  0  0
    6.7162   -3.5935   -2.0106 H   0  0  0  0  0  0  0  0  0  0  0  0
    9.1590   -3.6911   -1.6064 H   0  0  0  0  0  0  0  0  0  0  0  0
  1  9  1  0  0  0  0
  1 17  1  0  0  0  0
  2 23  2  0  0  0  0
  3 34  2  0  0  0  0
  4 12  1  0  0  0  0
  4 13  1  0  0  0  0
  4 19  1  0  0  0  0
  5 16  1  0  0  0  0
  5 18  1  0  0  0  0
  5 23  1  0  0  0  0
  6 23  1  0  0  0  0
  6 24  1  0  0  0  0
  6 57  1  0  0  0  0
  7  8  1  0  0  0  0
  7 30  2  0  0  0  0
  8 34  1  0  0  0  0
  8 64  1  0  0  0  0
  9 10  1  0  0  0  0
  9 11  1  0  0  0  0
  9 38  1  0  0  0  0
 10 12  1  0  0  0  0
 10 39  1  0  0  0  0
 10 40  1  0  0  0  0
 11 13  1  0  0  0  0
 11 41  1  0  0  0  0
 11 42  1  0  0  0  0
 12 43  1  0  0  0  0
 12 44  1  0  0  0  0
 13 45  1  0  0  0  0
 13 46  1  0  0  0  0
 14 15  2  0  0  0  0
 14 16  1  0  0  0  0
 14 20  1  0  0  0  0
 15 18  1  0  0  0  0
 15 21  1  0  0  0  0
 16 47  1  0  0  0  0
 16 48  1  0  0  0  0
 17 20  2  0  0  0  0
 17 22  1  0  0  0  0
 18 49  1  0  0  0  0
 18 50  1  0  0  0  0
 19 51  1  0  0  0  0
 19 52  1  0  0  0  0
 19 53  1  0  0  0  0
 20 54  1  0  0  0  0
 21 22  2  0  0  0  0
 21 55  1  0  0  0  0
 22 56  1  0  0  0  0
 24 25  2  0  0  0  0
 24 26  1  0  0  0  0
 25 28  1  0  0  0  0
 25 58  1  0  0  0  0
 26 29  2  0  0  0  0
 26 59  1  0  0  0  0
 27 28  2  0  0  0  0
 27 29  1  0  0  0  0
 27 30  1  0  0  0  0
 28 60  1  0  0  0  0
 29 61  1  0  0  0  0
 30 31  1  0  0  0  0
 31 32  1  0  0  0  0
 31 33  2  0  0  0  0
 32 34  1  0  0  0  0
 32 35  2  0  0  0  0
 33 36  1  0  0  0  0
 33 62  1  0  0  0  0
 35 37  1  0  0  0  0
 35 63  1  0  0  0  0
 36 37  2  0  0  0  0
 36 65  1  0  0  0  0
 37 66  1  0  0  0  0
M  END
> <PUBCHEM_COMPOUND_CID>
57510011

> <PUBCHEM_CONFORMER_RMSD>
1

> <PUBCHEM_CONFORMER_DIVERSEORDER>
1
83
15
12
102
120
41
85
9
110
121
73
93
27
123
80
90
76
42
64
103
96
59
78
113
19
122
65
17
116
29
88
52
75
70
71
57
55
86
56
36
51
119
114
117
92
62
107
89
82
98
79
105
84
77
68
97
124
111
25
104
43
108
58
94
2
38
49
112
67
53
22
69
20
109
106
37
35
74
23
34
39
95
54
118
60
115
8
100
44
61
101
10
26
30
47
91
6
50
46
13
72
21
33
48
81
28
66
24
87
18
32
14
40
63
11
4
99
31
45
5
16
7
3

> <PUBCHEM_MMFF94_PARTIAL_CHARGES>
48
1 -0.36
12 0.27
13 0.27
14 -0.14
15 -0.14
16 0.44
17 0.08
18 0.44
19 0.27
2 -0.57
20 -0.15
21 -0.15
22 -0.15
23 0.69
24 0.12
25 -0.15
26 -0.15
27 0.09
28 -0.15
29 -0.15
3 -0.57
30 0.28
31 0.09
32 0.09
33 -0.15
34 0.54
35 -0.15
36 -0.15
37 -0.15
4 -0.81
5 -0.66
54 0.15
55 0.15
56 0.15
57 0.37
58 0.15
59 0.15
6 -0.55
60 0.15
61 0.15
62 0.15
63 0.15
64 0.37
65 0.15
66 0.15
7 -0.51
8 -0.37
9 0.28

> <PUBCHEM_EFFECTIVE_ROTOR_COUNT>
7.8

> <PUBCHEM_PHARMACOPHORE_FEATURES>
13
1 1 acceptor
1 2 acceptor
1 3 acceptor
1 4 cation
1 6 donor
1 7 acceptor
1 8 donor
5 5 14 15 16 18 rings
6 14 15 17 20 21 22 rings
6 24 25 26 27 28 29 rings
6 31 32 33 35 36 37 rings
6 4 9 10 11 12 13 rings
6 7 8 30 31 32 34 rings

> <PUBCHEM_HEAVY_ATOM_COUNT>
37

> <PUBCHEM_ATOM_DEF_STEREO_COUNT>
0

> <PUBCHEM_ATOM_UDEF_STEREO_COUNT>
0

> <PUBCHEM_BOND_DEF_STEREO_COUNT>
0

> <PUBCHEM_BOND_UDEF_STEREO_COUNT>
0

> <PUBCHEM_ISOTOPIC_ATOM_COUNT>
0

> <PUBCHEM_COMPONENT_COUNT>
1

> <PUBCHEM_CACTVS_TAUTO_COUNT>
6

> <PUBCHEM_CONFORMER_ID>
036D887B00000001

> <PUBCHEM_MMFF94_ENERGY>
126.8472

> <PUBCHEM_FEATURE_SELFOVERLAP>
66.081

> <PUBCHEM_SHAPE_FINGERPRINT>
10162869 55 16225763025880538424
10299344 5 16845285026226533076
10674148 151 13686295794792786447
11135926 11 14907893839184630197
11456790 92 15985386690189084819
11607047 74 18191592050394871772
11973864 48 18410858763739384151
12082328 90 18201436939706442393
12089408 11 18410860962398590601
12522641 33 11674872290634388753
13553643 46 7925909292197169126
13560911 43 16128655241299719824
13947947 19 16443069417093161582
14040221 8 14634863132959122759
14118638 360 17168135689903882753
14202775 3 18408888429568942627
14395042 24 14189582940293048779
15065858 18 18341327820955669932
15183329 4 17095812014969833300
15247644 1 18342458171541265159
15399244 5 12757420679387244422
15461852 350 17167861959512368373
15510794 2 18410856551049861482
16120349 18 12685096982419318192
16728433 110 18272647978194026785
1754911 235 11169913896397390817
1818759 1 18273497857816689159
19302320 297 15697996357974243120
19315958 150 18272087211175202654
20105231 36 18334014956946618742
2026 5 18339927004498266703
212700 22 18335139812891922835
21792934 111 9079114454478030998
21895431 317 18114739339913290898
21927370 108 18342744005798933577
232437 2 18272652354918084243
23576562 1 16009899249568320062
306946 40 8574427604410409479
335352 9 16805324400984930672
335507 130 18409163337782543125
4149490 64 18060137643811332918
4353968 344 17095235918295378557
4516262 110 12540706920694698830
45377200 153 18410009966358699019
4760202 170 11674886606292980238
54039377 194 18410856564705111381
636775 8 17385447648950108155
6691757 9 16008758979149701017
9937071 3 18412829088096109163

> <PUBCHEM_SHAPE_MULTIPOLES>
718.93
45.28
2.24
1.47
30.67
1.34
-0.11
28.05
2.43
-0.65
-0.95
0.54
0.04
4.44

> <PUBCHEM_SHAPE_SELFOVERLAP>
1585.612

> <PUBCHEM_SHAPE_VOLUME>
384.9

> <PUBCHEM_COORDINATE_TYPE>
2
5
10

$$$$
57510013
  -OEChem-05102415043D

 62 67  0     1  0  0  0  0  0999 V2000
   11.5535   -1.0863    0.9776 F   0  0  0  0  0  0  0  0  0  0  0  0
    0.2481   -0.4760    1.7479 O   0  0  0  0  0  0  0  0  0  0  0  0
   -9.9180   -1.6660   -0.1305 O   0  0  0  0  0  0  0  0  0  0  0  0
    8.6469    0.0149   -0.1777 N   0  0  1  0  0  0  0  0  0  0  0  0
    1.8379    0.2335    0.2510 N   0  0  0  0  0  0  0  0  0  0  0  0
   -0.4012    0.1059   -0.4174 N   0  0  0  0  0  0  0  0  0  0  0  0
   -6.4178   -1.9760   -0.6055 N   0  0  0  0  0  0  0  0  0  0  0  0
   -7.7417   -2.2461   -0.5593 N   0  0  0  0  0  0  0  0  0  0  0  0
   10.0821    0.3124   -0.1927 C   0  0  0  0  0  0  0  0  0  0  0  0
    8.4947   -1.2144    0.5992 C   0  0  0  0  0  0  0  0  0  0  0  0
   10.7577   -1.0524   -0.1260 C   0  0  2  0  0  0  0  0  0  0  0  0
    9.6334   -2.0583    0.0543 C   0  0  0  0  0  0  0  0  0  0  0  0
    7.8516    1.1133    0.3480 C   0  0  0  0  0  0  0  0  0  0  0  0
    6.4203    1.0262   -0.0661 C   0  0  0  0  0  0  0  0  0  0  0  0
    4.1426    0.5237    0.4327 C   0  0  0  0  0  0  0  0  0  0  0  0
    3.7774    0.8791   -0.8713 C   0  0  0  0  0  0  0  0  0  0  0  0
    2.9430    0.0975    1.2099 C   0  0  0  0  0  0  0  0  0  0  0  0
    2.3060    0.7161   -1.0614 C   0  0  0  0  0  0  0  0  0  0  0  0
    5.4599    0.5921    0.8503 C   0  0  0  0  0  0  0  0  0  0  0  0
    6.0538    1.3829   -1.3742 C   0  0  0  0  0  0  0  0  0  0  0  0
    4.7213    1.3106   -1.7862 C   0  0  0  0  0  0  0  0  0  0  0  0
    0.5207   -0.0788    0.6135 C   0  0  0  0  0  0  0  0  0  0  0  0
   -1.7999   -0.1156   -0.3829 C   0  0  0  0  0  0  0  0  0  0  0  0
   -2.4052   -0.5722    0.7879 C   0  0  0  0  0  0  0  0  0  0  0  0
   -2.5717    0.1215   -1.5205 C   0  0  0  0  0  0  0  0  0  0  0  0
   -4.5541   -0.5544   -0.3163 C   0  0  0  0  0  0  0  0  0  0  0  0
   -3.7823   -0.7916    0.8212 C   0  0  0  0  0  0  0  0  0  0  0  0
   -3.9486   -0.0979   -1.4871 C   0  0  0  0  0  0  0  0  0  0  0  0
   -6.0117   -0.7875   -0.2799 C   0  0  0  0  0  0  0  0  0  0  0  0
   -6.9308    0.3025    0.1150 C   0  0  0  0  0  0  0  0  0  0  0  0
   -8.2884   -0.0047    0.1723 C   0  0  0  0  0  0  0  0  0  0  0  0
   -6.5034    1.6028    0.4033 C   0  0  0  0  0  0  0  0  0  0  0  0
   -8.7290   -1.3645   -0.1776 C   0  0  0  0  0  0  0  0  0  0  0  0
   -9.2220    0.9699    0.5391 C   0  0  0  0  0  0  0  0  0  0  0  0
   -7.4348    2.5769    0.7690 C   0  0  0  0  0  0  0  0  0  0  0  0
   -8.7904    2.2606    0.8403 C   0  0  0  0  0  0  0  0  0  0  0  0
   10.3926    0.9248    0.6629 H   0  0  0  0  0  0  0  0  0  0  0  0
   10.3459    0.8397   -1.1150 H   0  0  0  0  0  0  0  0  0  0  0  0
    7.5292   -1.7019    0.4332 H   0  0  0  0  0  0  0  0  0  0  0  0
    8.6301   -1.0444    1.6749 H   0  0  0  0  0  0  0  0  0  0  0  0
   11.3757   -1.2735   -1.0008 H   0  0  0  0  0  0  0  0  0  0  0  0
    9.3513   -2.4841   -0.9163 H   0  0  0  0  0  0  0  0  0  0  0  0
    9.9029   -2.8717    0.7339 H   0  0  0  0  0  0  0  0  0  0  0  0
    8.2362    2.0672   -0.0409 H   0  0  0  0  0  0  0  0  0  0  0  0
    7.9447    1.1982    1.4395 H   0  0  0  0  0  0  0  0  0  0  0  0
    3.0069   -0.9466    1.5309 H   0  0  0  0  0  0  0  0  0  0  0  0
    2.7509    0.7505    2.0666 H   0  0  0  0  0  0  0  0  0  0  0  0
    1.8161    1.6678   -1.2872 H   0  0  0  0  0  0  0  0  0  0  0  0
    2.0740   -0.0357   -1.8215 H   0  0  0  0  0  0  0  0  0  0  0  0
    5.7313    0.3127    1.8632 H   0  0  0  0  0  0  0  0  0  0  0  0
    6.8069    1.7203   -2.0825 H   0  0  0  0  0  0  0  0  0  0  0  0
    4.4400    1.5864   -2.7966 H   0  0  0  0  0  0  0  0  0  0  0  0
   -0.0516    0.4378   -1.3109 H   0  0  0  0  0  0  0  0  0  0  0  0
   -1.8809   -0.7791    1.7095 H   0  0  0  0  0  0  0  0  0  0  0  0
   -2.1126    0.4771   -2.4394 H   0  0  0  0  0  0  0  0  0  0  0  0
   -4.2452   -1.1473    1.7382 H   0  0  0  0  0  0  0  0  0  0  0  0
   -4.5406    0.0899   -2.3792 H   0  0  0  0  0  0  0  0  0  0  0  0
   -5.4558    1.8843    0.3585 H   0  0  0  0  0  0  0  0  0  0  0  0
  -10.2837    0.7453    0.5903 H   0  0  0  0  0  0  0  0  0  0  0  0
   -7.9833   -3.1964   -0.8217 H   0  0  0  0  0  0  0  0  0  0  0  0
   -7.1013    3.5850    0.9985 H   0  0  0  0  0  0  0  0  0  0  0  0
   -9.5111    3.0217    1.1248 H   0  0  0  0  0  0  0  0  0  0  0  0
  1 11  1  0  0  0  0
  2 22  2  0  0  0  0
  3 33  2  0  0  0  0
  4  9  1  0  0  0  0
  4 10  1  0  0  0  0
  4 13  1  0  0  0  0
  5 17  1  0  0  0  0
  5 18  1  0  0  0  0
  5 22  1  0  0  0  0
  6 22  1  0  0  0  0
  6 23  1  0  0  0  0
  6 53  1  0  0  0  0
  7  8  1  0  0  0  0
  7 29  2  0  0  0  0
  8 33  1  0  0  0  0
  8 60  1  0  0  0  0
  9 11  1  0  0  0  0
  9 37  1  0  0  0  0
  9 38  1  0  0  0  0
 10 12  1  0  0  0  0
 10 39  1  0  0  0  0
 10 40  1  0  0  0  0
 11 12  1  0  0  0  0
 11 41  1  0  0  0  0
 12 42  1  0  0  0  0
 12 43  1  0  0  0  0
 13 14  1  0  0  0  0
 13 44  1  0  0  0  0
 13 45  1  0  0  0  0
 14 19  2  0  0  0  0
 14 20  1  0  0  0  0
 15 16  2  0  0  0  0
 15 17  1  0  0  0  0
 15 19  1  0  0  0  0
 16 18  1  0  0  0  0
 16 21  1  0  0  0  0
 17 46  1  0  0  0  0
 17 47  1  0  0  0  0
 18 48  1  0  0  0  0
 18 49  1  0  0  0  0
 19 50  1  0  0  0  0
 20 21  2  0  0  0  0
 20 51  1  0  0  0  0
 21 52  1  0  0  0  0
 23 24  2  0  0  0  0
 23 25  1  0  0  0  0
 24 27  1  0  0  0  0
 24 54  1  0  0  0  0
 25 28  2  0  0  0  0
 25 55  1  0  0  0  0
 26 27  2  0  0  0  0
 26 28  1  0  0  0  0
 26 29  1  0  0  0  0
 27 56  1  0  0  0  0
 28 57  1  0  0  0  0
 29 30  1  0  0  0  0
 30 31  1  0  0  0  0
 30 32  2  0  0  0  0
 31 33  1  0  0  0  0
 31 34  2  0  0  0  0
 32 35  1  0  0  0  0
 32 58  1  0  0  0  0
 34 36  1  0  0  0  0
 34 59  1  0  0  0  0
 35 36  2  0  0  0  0
 35 61  1  0  0  0  0
 36 62  1  0  0  0  0
M  END
> <PUBCHEM_COMPOUND_CID>
57510013

> <PUBCHEM_CONFORMER_RMSD>
1.2

> <PUBCHEM_CONFORMER_DIVERSEORDER>
1
95
83
65
84
103
69
62
121
70
86
43
51
99
82
3
114
38
74
110
105
39
46
5
119
117
88
54
92
122
107
28
93
108
29
49
120
11
33
68
94
56
31
67
53
8
90
102
91
96
89
112
76
97
4
75
85
16
66
19
104
2
115
81
13
78
55
47
10
111
22
17
37
106
98
6
60
27
79
42
25
44
116
59
118
71
113
48
36
41
12
72
80
18
52
9
109
77
30
63
32
40
61
7
45
26
100
34
50
87
64
21
73
23
58
14
20
57
35
101
15
24

> <PUBCHEM_MMFF94_PARTIAL_CHARGES>
48
1 -0.34
10 0.27
11 0.34
13 0.41
14 -0.14
15 -0.14
16 -0.14
17 0.44
18 0.44
19 -0.15
2 -0.57
20 -0.15
21 -0.15
22 0.69
23 0.12
24 -0.15
25 -0.15
26 0.09
27 -0.15
28 -0.15
29 0.28
3 -0.57
30 0.09
31 0.09
32 -0.15
33 0.54
34 -0.15
35 -0.15
36 -0.15
4 -0.81
5 -0.66
50 0.15
51 0.15
52 0.15
53 0.37
54 0.15
55 0.15
56 0.15
57 0.15
58 0.15
59 0.15
6 -0.55
60 0.37
61 0.15
62 0.15
7 -0.51
8 -0.37
9 0.27

> <PUBCHEM_EFFECTIVE_ROTOR_COUNT>
7.6

> <PUBCHEM_PHARMACOPHORE_FEATURES>
12
1 2 acceptor
1 3 acceptor
1 4 cation
1 6 donor
1 7 acceptor
1 8 donor
5 4 9 10 11 12 rings
5 5 15 16 17 18 rings
6 14 15 16 19 20 21 rings
6 23 24 25 26 27 28 rings
6 30 31 32 34 35 36 rings
6 7 8 29 30 31 33 rings

> <PUBCHEM_HEAVY_ATOM_COUNT>
36

> <PUBCHEM_ATOM_DEF_STEREO_COUNT>
1

> <PUBCHEM_ATOM_UDEF_STEREO_COUNT>
0

> <PUBCHEM_BOND_DEF_STEREO_COUNT>
0

> <PUBCHEM_BOND_UDEF_STEREO_COUNT>
0

> <PUBCHEM_ISOTOPIC_ATOM_COUNT>
0

> <PUBCHEM_COMPONENT_COUNT>
1

> <PUBCHEM_CACTVS_TAUTO_COUNT>
6

> <PUBCHEM_CONFORMER_ID>
036D887D00000001

> <PUBCHEM_MMFF94_ENERGY>
117.6511

> <PUBCHEM_FEATURE_SELFOVERLAP>
61.006

> <PUBCHEM_SHAPE_FINGERPRINT>
10299344 5 18187363251300521397
10391435 84 14908177577455287076
10674148 151 18342455949976672946
11315181 36 10737282434041390823
12082328 90 18342175583840009311
12089408 11 18409731789678897028
12098696 120 14851888088883721326
12522641 33 17967531268261650138
12664476 115 17822007606196190396
12741549 16 17346877841557015408
12838862 33 15123505891874057452
13553643 46 15626222425045884482
13947934 56 17846223207072664976
14118638 360 15791999052624024093
14251764 46 18272652359566459854
14359421 15 17460028485131358026
14856354 85 18340207501503789327
15061470 23 18413387644799335104
15065858 18 17989202655872432322
15131766 46 17341798277940908416
15247644 1 18410009974896249551
15328684 2 18261382301221647841
15510794 2 18060704991552601190
15840311 113 18113900516068671972
16728433 110 15647052690963665228
19611394 137 13984956147062648941
19841028 212 18271527477995186822
20105231 36 16008751303694405256
21095123 145 13045949018911108745
21362267 2 13118566320535414670
21792934 111 14764342744134698618
232437 2 18411418423299054242
249057 3 16371008537837722842
3092352 35 18333732433955774547
335352 9 16877942750854373854
335507 130 16732983123961456910
42767 2 18409169918163121990
4339292 15 17274251877670158415
4874694 18 15123790682628948172
5381727 24 18410574002627200203
6081469 158 17275387599544649208
6201320 215 18201439113229329105
9663363 56 15410897358297777875
9937071 3 17346602968023964398

> <PUBCHEM_SHAPE_MULTIPOLES>
696.95
43.93
1.88
1.24
37.97
0.04
-0.21
-7.68
4.53
-2.83
0.05
0.47
0.21
-2.71

> <PUBCHEM_SHAPE_SELFOVERLAP>
1547.871

> <PUBCHEM_SHAPE_VOLUME>
375

> <PUBCHEM_COORDINATE_TYPE>
2
5
10

$$$$
57510003
  -OEChem-05102415043D

 63 68  0     0  0  0  0  0  0999 V2000
   -0.3832   -2.4486   -1.2763 O   0  0  0  0  0  0  0  0  0  0  0  0
    9.5345   -0.0667    1.2272 O   0  0  0  0  0  0  0  0  0  0  0  0
   -8.1067    1.4007    0.5577 N   0  0  0  0  0  0  0  0  0  0  0  0
   -2.2633   -1.4523   -0.4139 N   0  0  0  0  0  0  0  0  0  0  0  0
   -0.1500   -0.6662    0.2128 N   0  0  0  0  0  0  0  0  0  0  0  0
    7.4299   -0.8276    1.7575 N   0  0  0  0  0  0  0  0  0  0  0  0
   -9.0477    2.1114    1.4229 C   0  0  0  0  0  0  0  0  0  0  0  0
   -8.5787    1.6515   -0.8037 C   0  0  0  0  0  0  0  0  0  0  0  0
   -9.2511    3.4308    0.6930 C   0  0  0  0  0  0  0  0  0  0  0  0
   -8.9463    3.1277   -0.7709 C   0  0  0  0  0  0  0  0  0  0  0  0
   -8.0316   -0.0195    0.8669 C   0  0  0  0  0  0  0  0  0  0  0  0
   -6.7985   -0.6555    0.3168 C   0  0  0  0  0  0  0  0  0  0  0  0
   -4.4218   -0.7913    0.1714 C   0  0  0  0  0  0  0  0  0  0  0  0
   -4.5361   -1.8617   -0.7238 C   0  0  0  0  0  0  0  0  0  0  0  0
   -2.9848   -0.4723    0.4191 C   0  0  0  0  0  0  0  0  0  0  0  0
   -3.1850   -2.3365   -1.1405 C   0  0  0  0  0  0  0  0  0  0  0  0
   -5.5434   -0.1777    0.7002 C   0  0  0  0  0  0  0  0  0  0  0  0
   -6.9135   -1.7293   -0.5812 C   0  0  0  0  0  0  0  0  0  0  0  0
   -5.7749   -2.3419   -1.1098 C   0  0  0  0  0  0  0  0  0  0  0  0
   -0.8747   -1.5858   -0.5465 C   0  0  0  0  0  0  0  0  0  0  0  0
    1.2571   -0.5316    0.3044 C   0  0  0  0  0  0  0  0  0  0  0  0
    4.0284   -0.2664    0.4837 C   0  0  0  0  0  0  0  0  0  0  0  0
    2.0879   -1.3833   -0.4240 C   0  0  0  0  0  0  0  0  0  0  0  0
    1.8121    0.4526    1.1223 C   0  0  0  0  0  0  0  0  0  0  0  0
    5.4733   -0.1281    0.5775 C   0  0  0  0  0  0  0  0  0  0  0  0
    6.3413    0.7214   -0.2763 C   0  0  0  0  0  0  0  0  0  0  0  0
    3.4734   -1.2506   -0.3341 C   0  0  0  0  0  0  0  0  0  0  0  0
    3.1977    0.5850    1.2121 C   0  0  0  0  0  0  0  0  0  0  0  0
    7.7315    0.7504   -0.0638 C   0  0  0  0  0  0  0  0  0  0  0  0
    6.0772   -0.8488    1.5413 C   0  0  0  0  0  0  0  0  0  0  0  0
    5.8069    1.5107   -1.3055 C   0  0  0  0  0  0  0  0  0  0  0  0
    8.3252   -0.0733    1.0202 C   0  0  0  0  0  0  0  0  0  0  0  0
    8.5640    1.5462   -0.8597 C   0  0  0  0  0  0  0  0  0  0  0  0
    6.6382    2.3047   -2.0997 C   0  0  0  0  0  0  0  0  0  0  0  0
    8.0129    2.3221   -1.8772 C   0  0  0  0  0  0  0  0  0  0  0  0
  -10.0047    1.5797    1.5031 H   0  0  0  0  0  0  0  0  0  0  0  0
   -8.6482    2.2664    2.4301 H   0  0  0  0  0  0  0  0  0  0  0  0
   -7.8110    1.4502   -1.5576 H   0  0  0  0  0  0  0  0  0  0  0  0
   -9.4697    1.0577   -1.0455 H   0  0  0  0  0  0  0  0  0  0  0  0
   -8.5570    4.1931    1.0659 H   0  0  0  0  0  0  0  0  0  0  0  0
  -10.2694    3.8102    0.8253 H   0  0  0  0  0  0  0  0  0  0  0  0
   -9.8040    3.3423   -1.4163 H   0  0  0  0  0  0  0  0  0  0  0  0
   -8.1069    3.7460   -1.1103 H   0  0  0  0  0  0  0  0  0  0  0  0
   -8.9381   -0.5500    0.5456 H   0  0  0  0  0  0  0  0  0  0  0  0
   -7.9874   -0.1574    1.9567 H   0  0  0  0  0  0  0  0  0  0  0  0
   -2.7085   -0.6225    1.4669 H   0  0  0  0  0  0  0  0  0  0  0  0
   -2.7280    0.5375    0.0855 H   0  0  0  0  0  0  0  0  0  0  0  0
   -2.9973   -3.3707   -0.8361 H   0  0  0  0  0  0  0  0  0  0  0  0
   -3.0170   -2.2171   -2.2151 H   0  0  0  0  0  0  0  0  0  0  0  0
   -5.4398    0.6477    1.3973 H   0  0  0  0  0  0  0  0  0  0  0  0
   -7.8929   -2.0970   -0.8777 H   0  0  0  0  0  0  0  0  0  0  0  0
   -5.8655   -3.1707   -1.8035 H   0  0  0  0  0  0  0  0  0  0  0  0
   -0.6719   -0.0030    0.7770 H   0  0  0  0  0  0  0  0  0  0  0  0
    1.7393   -2.1685   -1.0789 H   0  0  0  0  0  0  0  0  0  0  0  0
    1.1761    1.1229    1.6948 H   0  0  0  0  0  0  0  0  0  0  0  0
    4.1084   -1.9212   -0.9087 H   0  0  0  0  0  0  0  0  0  0  0  0
    3.6143    1.3581    1.8535 H   0  0  0  0  0  0  0  0  0  0  0  0
    5.5320   -1.4999    2.2174 H   0  0  0  0  0  0  0  0  0  0  0  0
    4.7391    1.5237   -1.5097 H   0  0  0  0  0  0  0  0  0  0  0  0
    7.7903   -1.4070    2.5102 H   0  0  0  0  0  0  0  0  0  0  0  0
    9.6386    1.5743   -0.7021 H   0  0  0  0  0  0  0  0  0  0  0  0
    6.2101    2.9105   -2.8933 H   0  0  0  0  0  0  0  0  0  0  0  0
    8.6553    2.9409   -2.4969 H   0  0  0  0  0  0  0  0  0  0  0  0
  1 20  2  0  0  0  0
  2 32  2  0  0  0  0
  3  7  1  0  0  0  0
  3  8  1  0  0  0  0
  3 11  1  0  0  0  0
  4 15  1  0  0  0  0
  4 16  1  0  0  0  0
  4 20  1  0  0  0  0
  5 20  1  0  0  0  0
  5 21  1  0  0  0  0
  5 53  1  0  0  0  0
  6 30  1  0  0  0  0
  6 32  1  0  0  0  0
  6 60  1  0  0  0  0
  7  9  1  0  0  0  0
  7 36  1  0  0  0  0
  7 37  1  0  0  0  0
  8 10  1  0  0  0  0
  8 38  1  0  0  0  0
  8 39  1  0  0  0  0
  9 10  1  0  0  0  0
  9 40  1  0  0  0  0
  9 41  1  0  0  0  0
 10 42  1  0  0  0  0
 10 43  1  0  0  0  0
 11 12  1  0  0  0  0
 11 44  1  0  0  0  0
 11 45  1  0  0  0  0
 12 17  2  0  0  0  0
 12 18  1  0  0  0  0
 13 14  2  0  0  0  0
 13 15  1  0  0  0  0
 13 17  1  0  0  0  0
 14 16  1  0  0  0  0
 14 19  1  0  0  0  0
 15 46  1  0  0  0  0
 15 47  1  0  0  0  0
 16 48  1  0  0  0  0
 16 49  1  0  0  0  0
 17 50  1  0  0  0  0
 18 19  2  0  0  0  0
 18 51  1  0  0  0  0
 19 52  1  0  0  0  0
 21 23  2  0  0  0  0
 21 24  1  0  0  0  0
 22 25  1  0  0  0  0
 22 27  2  0  0  0  0
 22 28  1  0  0  0  0
 23 27  1  0  0  0  0
 23 54  1  0  0  0  0
 24 28  2  0  0  0  0
 24 55  1  0  0  0  0
 25 26  1  0  0  0  0
 25 30  2  0  0  0  0
 26 29  1  0  0  0  0
 26 31  2  0  0  0  0
 27 56  1  0  0  0  0
 28 57  1  0  0  0  0
 29 32  1  0  0  0  0
 29 33  2  0  0  0  0
 30 58  1  0  0  0  0
 31 34  1  0  0  0  0
 31 59  1  0  0  0  0
 33 35  1  0  0  0  0
 33 61  1  0  0  0  0
 34 35  2  0  0  0  0
 34 62  1  0  0  0  0
 35 63  1  0  0  0  0
M  END
> <PUBCHEM_COMPOUND_CID>
57510003

> <PUBCHEM_CONFORMER_RMSD>
1

> <PUBCHEM_CONFORMER_DIVERSEORDER>
2
114
70
115
72
100
23
101
92
63
105
45
35
28
104
38
116
69
90
8
37
109
52
7
103
106
86
14
88
51
81
80
41
107
87
1
78
53
96
93
26
68
77
74
61
62
98
79
66
95
54
117
83
36
25
30
17
108
57
12
56
85
76
58
27
91
11
46
18
89
4
102
97
112
113
44
19
29
43
65
31
60
111
5
3
64
94
99
48
71
55
49
82
22
32
13
33
73
110
75
9
15
10
47
16
6
67
40
50
21
59
42
20
24
34
84
39

> <PUBCHEM_MMFF94_PARTIAL_CHARGES>
47
1 -0.57
11 0.41
12 -0.14
13 -0.14
14 -0.14
15 0.44
16 0.44
17 -0.15
18 -0.15
19 -0.15
2 -0.57
20 0.69
21 0.12
22 0.03
23 -0.15
24 -0.15
25 -0.06
26 0.03
27 -0.15
28 -0.15
29 0.09
3 -0.81
30 -0.04
31 -0.15
32 0.54
33 -0.15
34 -0.15
35 -0.15
4 -0.66
5 -0.55
50 0.15
51 0.15
52 0.15
53 0.37
54 0.15
55 0.15
56 0.15
57 0.15
58 0.15
59 0.15
6 -0.54
60 0.37
61 0.15
62 0.15
63 0.15
7 0.27
8 0.27

> <PUBCHEM_EFFECTIVE_ROTOR_COUNT>
7.6

> <PUBCHEM_PHARMACOPHORE_FEATURES>
11
1 1 acceptor
1 2 acceptor
1 3 cation
1 5 donor
1 6 donor
5 3 7 8 9 10 rings
5 4 13 14 15 16 rings
6 12 13 14 17 18 19 rings
6 21 22 23 24 27 28 rings
6 26 29 31 33 34 35 rings
6 6 25 26 29 30 32 rings

> <PUBCHEM_HEAVY_ATOM_COUNT>
35

> <PUBCHEM_ATOM_DEF_STEREO_COUNT>
0

> <PUBCHEM_ATOM_UDEF_STEREO_COUNT>
0

> <PUBCHEM_BOND_DEF_STEREO_COUNT>
0

> <PUBCHEM_BOND_UDEF_STEREO_COUNT>
0

> <PUBCHEM_ISOTOPIC_ATOM_COUNT>
0

> <PUBCHEM_COMPONENT_COUNT>
1

> <PUBCHEM_CACTVS_TAUTO_COUNT>
4

> <PUBCHEM_CONFORMER_ID>
036D887300000002

> <PUBCHEM_MMFF94_ENERGY>
106.4475

> <PUBCHEM_FEATURE_SELFOVERLAP>
55.931

> <PUBCHEM_SHAPE_FINGERPRINT>
10299344 5 18335416911391631278
10533779 47 15719386205989640584
10625338 86 17822007572158465725
10951579 204 16844194314987215080
11135609 127 12894774988303774914
11181472 205 18336267860207787142
11386260 185 15841545297350733360
11408170 132 18272942587565168630
11578821 258 18412544340376074141
12013929 112 18200049399366309550
12089408 11 18335699468546944426
12120059 9 14979953662716279750
12133447 93 17917720109930252365
12144603 126 18333731308246704953
12522641 68 17846497033151570367
12539765 74 18410299107482858934
12838862 33 17489575749615313666
13383665 225 18268730366903930204
13530399 1 18334862752983603476
13553643 46 17967530139054633405
14294032 229 18129959887802940032
14395042 24 18333446526536410508
15065858 18 17060334154907163250
15183329 4 17845944021609156018
15198563 99 15984841310667161032
15350500 55 18131631158699034583
15419008 91 16773219807978226578
15461852 350 17346874581755256823
15510794 2 15338840905903869582
15554971 5 18188202195378156367
1577012 14 18409166644696545999
16087824 20 18130227065292334769
16728433 281 18058738979697015089
16989713 51 17559387162659723583
1754908 1 15068341224518597001
1754911 235 15410894042324562585
17852330 31 16660942066381198417
21095123 293 18335144206427019981
21362267 2 16414617390274491928
21362267 313 18342450406324192898
21585482 111 18411982426115951821
21772524 286 18335701577608931077
22149856 69 18411695470739197152
23522609 53 18115593789090882886
24204213 265 14189570841337949074
24771293 8 18335140904103110719
3092352 35 18261391186670426650
3633792 109 14189310261298589446
3711267 37 18341058487936382049
397830 11 15936980772549228322
4073 2 18408328804537627323
44280117 145 18273212024925194823
4461854 278 14418140603990950017
44802255 64 16988840576238226279
4874694 18 13973961022479303894
57359948 33 18343027653711584966
59682541 35 13334734665324468502
6201320 82 17916035556335874361
6289498 60 18335141943485871425
6698420 124 17676491682971183546
9953998 17 16298389089311097395
9962374 69 11674891021423946835
9980921 7 18335978694084542165

> <PUBCHEM_SHAPE_MULTIPOLES>
688.62
38.36
2.98
1.54
13.16
1.68
0.13
29.04
-3
6.82
1.25
-2.08
0.39
-4.83

> <PUBCHEM_SHAPE_SELFOVERLAP>
1528.186

> <PUBCHEM_SHAPE_VOLUME>
368.7

> <PUBCHEM_COORDINATE_TYPE>
2
5
10

$$$$
57510010
  -OEChem-05102415043D

 65 70  0     0  0  0  0  0  0999 V2000
    3.5311   -1.6002   -0.0145 F   0  0  0  0  0  0  0  0  0  0  0  0
    4.0558   -2.4459   -1.9478 F   0  0  0  0  0  0  0  0  0  0  0  0
    3.4143   -0.3736   -1.7993 F   0  0  0  0  0  0  0  0  0  0  0  0
   -0.7734   -1.2821    2.3112 O   0  0  0  0  0  0  0  0  0  0  0  0
    8.9669    2.0014    0.6847 O   0  0  0  0  0  0  0  0  0  0  0  0
   -8.7509    0.8655   -0.9797 N   0  0  0  0  0  0  0  0  0  0  0  0
   -2.6086   -0.8010    1.0183 N   0  0  0  0  0  0  0  0  0  0  0  0
   -0.5093    0.0242    0.3949 N   0  0  0  0  0  0  0  0  0  0  0  0
    5.4462    2.1804    1.0671 N   0  0  0  0  0  0  0  0  0  0  0  0
    6.7664    2.4661    1.1293 N   0  0  0  0  0  0  0  0  0  0  0  0
   -9.5978    1.3243   -2.0804 C   0  0  0  0  0  0  0  0  0  0  0  0
   -9.5812    0.9945    0.2173 C   0  0  0  0  0  0  0  0  0  0  0  0
  -10.2800    2.5529   -1.4969 C   0  0  0  0  0  0  0  0  0  0  0  0
  -10.2659    2.3378    0.0133 C   0  0  0  0  0  0  0  0  0  0  0  0
   -8.2696   -0.4936   -1.1782 C   0  0  0  0  0  0  0  0  0  0  0  0
   -7.0657   -0.7958   -0.3495 C   0  0  0  0  0  0  0  0  0  0  0  0
   -4.7246   -0.5950    0.0602 C   0  0  0  0  0  0  0  0  0  0  0  0
   -4.8579   -1.3769    1.2138 C   0  0  0  0  0  0  0  0  0  0  0  0
   -3.3016   -0.1864   -0.1291 C   0  0  0  0  0  0  0  0  0  0  0  0
   -3.5345   -1.5488    1.8801 C   0  0  0  0  0  0  0  0  0  0  0  0
   -5.8189   -0.2960   -0.7319 C   0  0  0  0  0  0  0  0  0  0  0  0
   -7.1995   -1.5801    0.8080 C   0  0  0  0  0  0  0  0  0  0  0  0
   -6.0885   -1.8769    1.6008 C   0  0  0  0  0  0  0  0  0  0  0  0
   -1.2415   -0.7246    1.3169 C   0  0  0  0  0  0  0  0  0  0  0  0
    0.8812    0.2949    0.4034 C   0  0  0  0  0  0  0  0  0  0  0  0
    3.6189    0.8306    0.4214 C   0  0  0  0  0  0  0  0  0  0  0  0
    6.0102    0.2033   -0.2548 C   0  0  0  0  0  0  0  0  0  0  0  0
    5.0680    1.1138    0.4322 C   0  0  0  0  0  0  0  0  0  0  0  0
    1.6849   -0.2151    1.4232 C   0  0  0  0  0  0  0  0  0  0  0  0
    1.4462    1.0727   -0.6071 C   0  0  0  0  0  0  0  0  0  0  0  0
    3.0537    0.0529    1.4321 C   0  0  0  0  0  0  0  0  0  0  0  0
    2.8150    1.3406   -0.5981 C   0  0  0  0  0  0  0  0  0  0  0  0
    7.3662    0.5088   -0.1620 C   0  0  0  0  0  0  0  0  0  0  0  0
    5.6017   -0.9114   -0.9946 C   0  0  0  0  0  0  0  0  0  0  0  0
    8.3211   -0.3036   -0.7818 C   0  0  0  0  0  0  0  0  0  0  0  0
    6.5542   -1.7228   -1.6148 C   0  0  0  0  0  0  0  0  0  0  0  0
    7.7790    1.7098    0.5815 C   0  0  0  0  0  0  0  0  0  0  0  0
    4.1777   -1.3227   -1.1839 C   0  0  0  0  0  0  0  0  0  0  0  0
    7.9108   -1.4220   -1.5056 C   0  0  0  0  0  0  0  0  0  0  0  0
  -10.3520    0.5739   -2.3505 H   0  0  0  0  0  0  0  0  0  0  0  0
   -9.0167    1.5734   -2.9740 H   0  0  0  0  0  0  0  0  0  0  0  0
   -8.9924    0.9877    1.1400 H   0  0  0  0  0  0  0  0  0  0  0  0
  -10.3388    0.2027    0.2796 H   0  0  0  0  0  0  0  0  0  0  0  0
   -9.7231    3.4636   -1.7469 H   0  0  0  0  0  0  0  0  0  0  0  0
  -11.2989    2.6662   -1.8808 H   0  0  0  0  0  0  0  0  0  0  0  0
  -11.2770    2.3414    0.4329 H   0  0  0  0  0  0  0  0  0  0  0  0
   -9.6983    3.1417    0.4967 H   0  0  0  0  0  0  0  0  0  0  0  0
   -7.9722   -0.6295   -2.2282 H   0  0  0  0  0  0  0  0  0  0  0  0
   -9.0613   -1.2379   -1.0155 H   0  0  0  0  0  0  0  0  0  0  0  0
   -2.8820   -0.5878   -1.0563 H   0  0  0  0  0  0  0  0  0  0  0  0
   -3.1793    0.8997   -0.0799 H   0  0  0  0  0  0  0  0  0  0  0  0
   -3.5159   -1.1118    2.8831 H   0  0  0  0  0  0  0  0  0  0  0  0
   -3.2200   -2.5963    1.9128 H   0  0  0  0  0  0  0  0  0  0  0  0
   -5.7040    0.3112   -1.6242 H   0  0  0  0  0  0  0  0  0  0  0  0
   -8.1733   -1.9649    1.1016 H   0  0  0  0  0  0  0  0  0  0  0  0
   -6.1937   -2.4824    2.4943 H   0  0  0  0  0  0  0  0  0  0  0  0
   -1.0115    0.4362   -0.3852 H   0  0  0  0  0  0  0  0  0  0  0  0
    1.3268   -0.8236    2.2407 H   0  0  0  0  0  0  0  0  0  0  0  0
    0.8306    1.4803   -1.4048 H   0  0  0  0  0  0  0  0  0  0  0  0
    3.6708   -0.3432    2.2351 H   0  0  0  0  0  0  0  0  0  0  0  0
    3.2404    1.9682   -1.3783 H   0  0  0  0  0  0  0  0  0  0  0  0
    9.3821   -0.0797   -0.7168 H   0  0  0  0  0  0  0  0  0  0  0  0
    6.2727   -2.5986   -2.1929 H   0  0  0  0  0  0  0  0  0  0  0  0
    8.6483   -2.0554   -1.9899 H   0  0  0  0  0  0  0  0  0  0  0  0
    6.9866    3.3114    1.6462 H   0  0  0  0  0  0  0  0  0  0  0  0
  1 38  1  0  0  0  0
  2 38  1  0  0  0  0
  3 38  1  0  0  0  0
  4 24  2  0  0  0  0
  5 37  2  0  0  0  0
  6 11  1  0  0  0  0
  6 12  1  0  0  0  0
  6 15  1  0  0  0  0
  7 19  1  0  0  0  0
  7 20  1  0  0  0  0
  7 24  1  0  0  0  0
  8 24  1  0  0  0  0
  8 25  1  0  0  0  0
  8 57  1  0  0  0  0
  9 10  1  0  0  0  0
  9 28  2  0  0  0  0
 10 37  1  0  0  0  0
 10 65  1  0  0  0  0
 11 13  1  0  0  0  0
 11 40  1  0  0  0  0
 11 41  1  0  0  0  0
 12 14  1  0  0  0  0
 12 42  1  0  0  0  0
 12 43  1  0  0  0  0
 13 14  1  0  0  0  0
 13 44  1  0  0  0  0
 13 45  1  0  0  0  0
 14 46  1  0  0  0  0
 14 47  1  0  0  0  0
 15 16  1  0  0  0  0
 15 48  1  0  0  0  0
 15 49  1  0  0  0  0
 16 21  2  0  0  0  0
 16 22  1  0  0  0  0
 17 18  2  0  0  0  0
 17 19  1  0  0  0  0
 17 21  1  0  0  0  0
 18 20  1  0  0  0  0
 18 23  1  0  0  0  0
 19 50  1  0  0  0  0
 19 51  1  0  0  0  0
 20 52  1  0  0  0  0
 20 53  1  0  0  0  0
 21 54  1  0  0  0  0
 22 23  2  0  0  0  0
 22 55  1  0  0  0  0
 23 56  1  0  0  0  0
 25 29  2  0  0  0  0
 25 30  1  0  0  0  0
 26 28  1  0  0  0  0
 26 31  2  0  0  0  0
 26 32  1  0  0  0  0
 27 28  1  0  0  0  0
 27 33  2  0  0  0  0
 27 34  1  0  0  0  0
 29 31  1  0  0  0  0
 29 58  1  0  0  0  0
 30 32  2  0  0  0  0
 30 59  1  0  0  0  0
 31 60  1  0  0  0  0
 32 61  1  0  0  0  0
 33 35  1  0  0  0  0
 33 37  1  0  0  0  0
 34 36  2  0  0  0  0
 34 38  1  0  0  0  0
 35 39  2  0  0  0  0
 35 62  1  0  0  0  0
 36 39  1  0  0  0  0
 36 63  1  0  0  0  0
 39 64  1  0  0  0  0
M  END
> <PUBCHEM_COMPOUND_CID>
57510010

> <PUBCHEM_CONFORMER_RMSD>
1

> <PUBCHEM_CONFORMER_DIVERSEORDER>
3
40
75
15
80
46
44
77
31
58
79
17
91
30
36
76
7
28
52
27
41
63
24
78
93
82
69
43
56
21
34
88
1
68
48
55
72
12
73
62
53
71
9
74
66
90
35
92
86
22
39
4
59
29
23
11
26
89
47
49
61
32
60
81
8
51
87
20
37
84
45
19
13
10
2
83
65
18
64
67
70
16
33
14
57
85
25
38
6
54
5
50
42

> <PUBCHEM_MMFF94_PARTIAL_CHARGES>
49
1 -0.34
10 -0.37
11 0.27
12 0.27
15 0.41
16 -0.14
17 -0.14
18 -0.14
19 0.44
2 -0.34
20 0.44
21 -0.15
22 -0.15
23 -0.15
24 0.69
25 0.12
26 0.09
27 0.09
28 0.28
29 -0.15
3 -0.34
30 -0.15
31 -0.15
32 -0.15
33 0.09
34 -0.14
35 -0.15
36 -0.15
37 0.54
38 1.16
39 -0.15
4 -0.57
5 -0.57
54 0.15
55 0.15
56 0.15
57 0.37
58 0.15
59 0.15
6 -0.81
60 0.15
61 0.15
62 0.15
63 0.15
64 0.15
65 0.37
7 -0.66
8 -0.55
9 -0.51

> <PUBCHEM_EFFECTIVE_ROTOR_COUNT>
8.6

> <PUBCHEM_PHARMACOPHORE_FEATURES>
12
1 10 donor
1 4 acceptor
1 5 acceptor
1 6 cation
1 8 donor
1 9 acceptor
5 6 11 12 13 14 rings
5 7 17 18 19 20 rings
6 16 17 18 21 22 23 rings
6 25 26 29 30 31 32 rings
6 27 33 34 35 36 39 rings
6 9 10 27 28 33 37 rings

> <PUBCHEM_HEAVY_ATOM_COUNT>
39

> <PUBCHEM_ATOM_DEF_STEREO_COUNT>
0

> <PUBCHEM_ATOM_UDEF_STEREO_COUNT>
0

> <PUBCHEM_BOND_DEF_STEREO_COUNT>
0

> <PUBCHEM_BOND_UDEF_STEREO_COUNT>
0

> <PUBCHEM_ISOTOPIC_ATOM_COUNT>
0

> <PUBCHEM_COMPONENT_COUNT>
1

> <PUBCHEM_CACTVS_TAUTO_COUNT>
8

> <PUBCHEM_CONFORMER_ID>
036D887A00000003

> <PUBCHEM_MMFF94_ENERGY>
146.9827

> <PUBCHEM_FEATURE_SELFOVERLAP>
61.006

> <PUBCHEM_SHAPE_FINGERPRINT>
10162869 55 15985101920587290216
10299344 5 16630533946490263298
11061554 47 18186513320291706661
11115154 58 17022907843653576364
11181472 205 17095522872895938488
11456790 92 13479125796474963007
11607047 141 17603852375180354440
11672396 167 17987522503221586902
12089408 11 16008748039044648995
12098696 120 17967816021062563817
13811026 1 18410576210530274285
14251764 18 16271933726512057674
14294032 229 16588297233532158893
14400156 413 18059289963307281384
150020 25 18410857667741358439
15065858 18 18412824707039452698
15183329 4 17385729105470316122
15198563 99 18338805519749511589
15419008 91 18263917899109113745
15510794 2 18412547639374596419
1577012 14 17749098994806726923
1754911 235 18343298163610505445
19302320 297 14634877443927861615
19303781 99 13182433605698311253
21781055 127 16732700532483224992
23389318 12 16630807724763967777
23576562 1 18196922487466400325
23729398 52 17243285021136537899
3633792 109 18272091590992376963
3711267 37 17313107428499528421
3991529 128 16732990795923047597
4173938 188 9583508816360361293
42767 2 17275099510666481773
42767 23 16487248868951505141
4339292 15 13183015212714781705
44280117 145 18117279366866918851
44880568 143 18041847336897765009
4516262 110 17560233764995576512
4625314 4 18271804674560886925
474113 269 17131554933868839654
4760202 170 18202277030640390680
5219985 9 15698004046023634643
6081469 158 17561082505818921985
6126387 218 18413951685679191717
6201320 221 17488466265132135590
6691757 9 15574712526721953211
9962374 69 13110952146244843155

> <PUBCHEM_SHAPE_MULTIPOLES>
744.14
37.84
2.31
1.81
52.03
0.64
0.24
18.74
11.47
2.14
-0.21
-0.69
-0.51
5.69

> <PUBCHEM_SHAPE_SELFOVERLAP>
1669.115

> <PUBCHEM_SHAPE_VOLUME>
393.1

> <PUBCHEM_COORDINATE_TYPE>
2
5
10

$$$$
57510159
  -OEChem-05102415043D

 46 50  0     0  0  0  0  0  0999 V2000
    2.4698    0.3528   -1.9826 O   0  0  0  0  0  0  0  0  0  0  0  0
   -7.7071    1.3062   -0.0286 O   0  0  0  0  0  0  0  0  0  0  0  0
    4.1384    0.0915   -0.4277 N   0  0  0  0  0  0  0  0  0  0  0  0
    1.9122    0.2270    0.2805 N   0  0  0  0  0  0  0  0  0  0  0  0
    8.7713   -0.3223   -0.1368 N   0  0  0  0  0  0  0  0  0  0  0  0
   -4.2260    1.9270    0.2356 N   0  0  0  0  0  0  0  0  0  0  0  0
   -5.5660    2.0986    0.1815 N   0  0  0  0  0  0  0  0  0  0  0  0
    4.6696   -0.0586    0.9411 C   0  0  0  0  0  0  0  0  0  0  0  0
    5.2101    0.0779   -1.4343 C   0  0  0  0  0  0  0  0  0  0  0  0
    6.1433   -0.1669    0.7337 C   0  0  0  0  0  0  0  0  0  0  0  0
    6.4464   -0.0884   -0.6252 C   0  0  0  0  0  0  0  0  0  0  0  0
    2.7950    0.2344   -0.8000 C   0  0  0  0  0  0  0  0  0  0  0  0
    7.1408   -0.3232    1.6729 C   0  0  0  0  0  0  0  0  0  0  0  0
    7.7594   -0.1689   -1.0217 C   0  0  0  0  0  0  0  0  0  0  0  0
    8.4361   -0.3950    1.1808 C   0  0  0  0  0  0  0  0  0  0  0  0
    0.5011    0.3495    0.2511 C   0  0  0  0  0  0  0  0  0  0  0  0
   -2.2773    0.5934    0.1937 C   0  0  0  0  0  0  0  0  0  0  0  0
   -3.7478    0.7231    0.1621 C   0  0  0  0  0  0  0  0  0  0  0  0
   -4.5996   -0.4814    0.0494 C   0  0  0  0  0  0  0  0  0  0  0  0
   -0.1608    0.4992   -0.9677 C   0  0  0  0  0  0  0  0  0  0  0  0
   -0.2261    0.3219    1.4411 C   0  0  0  0  0  0  0  0  0  0  0  0
   -5.9759   -0.2779   -0.0225 C   0  0  0  0  0  0  0  0  0  0  0  0
   -1.5500    0.6211   -0.9963 C   0  0  0  0  0  0  0  0  0  0  0  0
   -1.6152    0.4439    1.4123 C   0  0  0  0  0  0  0  0  0  0  0  0
   -4.0917   -1.7846    0.0357 C   0  0  0  0  0  0  0  0  0  0  0  0
   -6.4997    1.0959    0.0385 C   0  0  0  0  0  0  0  0  0  0  0  0
   -6.8493   -1.3646   -0.1325 C   0  0  0  0  0  0  0  0  0  0  0  0
   -4.9629   -2.8704   -0.0733 C   0  0  0  0  0  0  0  0  0  0  0  0
   -6.3380   -2.6611   -0.1609 C   0  0  0  0  0  0  0  0  0  0  0  0
    4.2522   -0.9657    1.3882 H   0  0  0  0  0  0  0  0  0  0  0  0
    4.4035    0.8267    1.5261 H   0  0  0  0  0  0  0  0  0  0  0  0
    5.1945    1.0257   -1.9807 H   0  0  0  0  0  0  0  0  0  0  0  0
    5.0436   -0.7607   -2.1171 H   0  0  0  0  0  0  0  0  0  0  0  0
    6.9309   -0.3867    2.7329 H   0  0  0  0  0  0  0  0  0  0  0  0
    8.0500   -0.1136   -2.0640 H   0  0  0  0  0  0  0  0  0  0  0  0
    2.3043    0.1225    1.2110 H   0  0  0  0  0  0  0  0  0  0  0  0
    9.2767   -0.5180    1.8568 H   0  0  0  0  0  0  0  0  0  0  0  0
    0.3268    0.5301   -1.9311 H   0  0  0  0  0  0  0  0  0  0  0  0
    0.2774    0.2061    2.3975 H   0  0  0  0  0  0  0  0  0  0  0  0
   -2.0571    0.7373   -1.9508 H   0  0  0  0  0  0  0  0  0  0  0  0
   -2.1722    0.4212    2.3455 H   0  0  0  0  0  0  0  0  0  0  0  0
   -3.0266   -1.9846    0.1014 H   0  0  0  0  0  0  0  0  0  0  0  0
   -7.9248   -1.2223   -0.1916 H   0  0  0  0  0  0  0  0  0  0  0  0
   -5.8655    3.0668    0.2391 H   0  0  0  0  0  0  0  0  0  0  0  0
   -4.5671   -3.8819   -0.0898 H   0  0  0  0  0  0  0  0  0  0  0  0
   -7.0118   -3.5089   -0.2452 H   0  0  0  0  0  0  0  0  0  0  0  0
  1 12  2  0  0  0  0
  2 26  2  0  0  0  0
  3  8  1  0  0  0  0
  3  9  1  0  0  0  0
  3 12  1  0  0  0  0
  4 12  1  0  0  0  0
  4 16  1  0  0  0  0
  4 36  1  0  0  0  0
  5 14  2  0  0  0  0
  5 15  1  0  0  0  0
  6  7  1  0  0  0  0
  6 18  2  0  0  0  0
  7 26  1  0  0  0  0
  7 44  1  0  0  0  0
  8 10  1  0  0  0  0
  8 30  1  0  0  0  0
  8 31  1  0  0  0  0
  9 11  1  0  0  0  0
  9 32  1  0  0  0  0
  9 33  1  0  0  0  0
 10 11  2  0  0  0  0
 10 13  1  0  0  0  0
 11 14  1  0  0  0  0
 13 15  2  0  0  0  0
 13 34  1  0  0  0  0
 14 35  1  0  0  0  0
 15 37  1  0  0  0  0
 16 20  2  0  0  0  0
 16 21  1  0  0  0  0
 17 18  1  0  0  0  0
 17 23  2  0  0  0  0
 17 24  1  0  0  0  0
 18 19  1  0  0  0  0
 19 22  1  0  0  0  0
 19 25  2  0  0  0  0
 20 23  1  0  0  0  0
 20 38  1  0  0  0  0
 21 24  2  0  0  0  0
 21 39  1  0  0  0  0
 22 26  1  0  0  0  0
 22 27  2  0  0  0  0
 23 40  1  0  0  0  0
 24 41  1  0  0  0  0
 25 28  1  0  0  0  0
 25 42  1  0  0  0  0
 27 29  1  0  0  0  0
 27 43  1  0  0  0  0
 28 29  2  0  0  0  0
 28 45  1  0  0  0  0
 29 46  1  0  0  0  0
M  END
> <PUBCHEM_COMPOUND_CID>
57510159

> <PUBCHEM_CONFORMER_RMSD>
0.8

> <PUBCHEM_CONFORMER_DIVERSEORDER>
1
31
14
42
41
49
46
33
38
36
48
10
24
50
27
11
43
19
39
26
29
35
47
8
37
20
44
15
32
6
34
12
21
45
40
2
28
22
5
23
25
3
30
16
13
4
9
17
7
18

> <PUBCHEM_MMFF94_PARTIAL_CHARGES>
42
1 -0.57
10 -0.14
11 -0.14
12 0.69
13 -0.15
14 0.16
15 0.16
16 0.12
17 0.09
18 0.28
19 0.09
2 -0.57
20 -0.15
21 -0.15
22 0.09
23 -0.15
24 -0.15
25 -0.15
26 0.54
27 -0.15
28 -0.15
29 -0.15
3 -0.66
34 0.15
35 0.15
36 0.37
37 0.15
38 0.15
39 0.15
4 -0.55
40 0.15
41 0.15
42 0.15
43 0.15
44 0.37
45 0.15
46 0.15
5 -0.62
6 -0.51
7 -0.37
8 0.44
9 0.44

> <PUBCHEM_EFFECTIVE_ROTOR_COUNT>
4.6

> <PUBCHEM_PHARMACOPHORE_FEATURES>
11
1 1 acceptor
1 2 acceptor
1 4 donor
1 5 acceptor
1 6 acceptor
1 7 donor
5 3 8 9 10 11 rings
6 16 17 20 21 23 24 rings
6 19 22 25 27 28 29 rings
6 5 10 11 13 14 15 rings
6 6 7 18 19 22 26 rings

> <PUBCHEM_HEAVY_ATOM_COUNT>
29

> <PUBCHEM_ATOM_DEF_STEREO_COUNT>
0

> <PUBCHEM_ATOM_UDEF_STEREO_COUNT>
0

> <PUBCHEM_BOND_DEF_STEREO_COUNT>
0

> <PUBCHEM_BOND_UDEF_STEREO_COUNT>
0

> <PUBCHEM_ISOTOPIC_ATOM_COUNT>
0

> <PUBCHEM_COMPONENT_COUNT>
1

> <PUBCHEM_CACTVS_TAUTO_COUNT>
6

> <PUBCHEM_CONFORMER_ID>
036D890F00000001

> <PUBCHEM_MMFF94_ENERGY>
103.1669

> <PUBCHEM_FEATURE_SELFOVERLAP>
55.933

> <PUBCHEM_SHAPE_FINGERPRINT>
10 15 17561359608861342272
10299344 5 18040152912064475322
10554248 39 16225774025603429270
106641 1 14692572156664446895
11135926 11 18187639189959600695
11315181 36 18342181072660734809
11524674 6 17489586783840231399
12089408 11 18186239529137218192
12166972 35 18040999574641628436
12236239 1 17894632573993110085
12643181 29 18272931635752296391
12741549 16 16917071097196247353
13885169 127 18341613698363360777
13911987 19 14996272648686838051
14068700 675 18259987084915891572
14251764 18 17530685399131144404
14461889 52 18060138747902874950
14856354 85 18335703866899436839
150020 25 17846499218993328448
15119646 104 17676201347672489994
15183329 4 16008742524591341130
15419008 47 17775560919066328344
15419008 91 18129926936845571512
15461852 350 18409454695827050582
15510794 2 17703792504896195494
1577012 14 17749392568178535822
15849732 13 17703788115788057684
17093844 174 17917992776778195835
17686467 74 18337669823575726008
19303781 99 18124869321250598623
19611394 137 17632295726244617394
21315759 40 18113056022007086280
21623969 137 16702311160498947207
21792961 116 17131837521843056968
22224240 67 15482670182776051518
23081809 10 17821736048050981556
23522609 53 17750824106401372292
23559900 14 18272365395911942401
249057 25 18187941568278546724
249057 3 18410011044532198365
2747138 104 16845584140275044010
3178227 256 16559033814028259594
335352 9 16009037185360249938
3418910 222 17917720144929262936
397830 11 17845362418216869960
4325135 7 18113336401313566254
4339292 15 18059002995726138655
44389302 135 18115576060489758970
444769 64 17240205439120926875
5085150 59 18413388747925759943
5219985 9 17530963579810385308
54039377 194 17895481444705627915
57676310 188 18113616760074346418
58260988 114 16516549814734396465
58902169 19 17749112218145842182
59682541 35 16415477190132506894
5969126 39 16877652457323465812
59755656 520 15719397248239502969
6009941 240 18202567259408445705
6081469 158 13479125771623394546
99344 41 18335701615978202194
9953998 17 17846502539293302619

> <PUBCHEM_SHAPE_MULTIPOLES>
560.16
27.36
1.76
1.29
29.83
0.94
0
5.55
-1.66
-5.77
0
2.33
-0.08
-0.66

> <PUBCHEM_SHAPE_SELFOVERLAP>
1255.421

> <PUBCHEM_SHAPE_VOLUME>
294.7

> <PUBCHEM_COORDINATE_TYPE>
2
5
10

$$$$
57510001
  -OEChem-05102415043D

 48 52  0     0  0  0  0  0  0999 V2000
  -10.1172   -0.3482   -0.5022 Cl  0  0  0  0  0  0  0  0  0  0  0  0
   -2.1757    0.2333   -1.9704 O   0  0  0  0  0  0  0  0  0  0  0  0
    8.0786    1.4224   -0.0301 O   0  0  0  0  0  0  0  0  0  0  0  0
   -3.8336    0.0875   -0.3888 N   0  0  0  0  0  0  0  0  0  0  0  0
   -1.5991    0.2318    0.2916 N   0  0  0  0  0  0  0  0  0  0  0  0
    5.8957    2.1407    0.0573 N   0  0  0  0  0  0  0  0  0  0  0  0
   -4.9133    0.0289   -1.3837 C   0  0  0  0  0  0  0  0  0  0  0  0
   -4.3533    0.0256    0.9898 C   0  0  0  0  0  0  0  0  0  0  0  0
   -6.1520   -0.0720   -0.5589 C   0  0  0  0  0  0  0  0  0  0  0  0
   -5.8310   -0.0738    0.8039 C   0  0  0  0  0  0  0  0  0  0  0  0
   -7.4659   -0.1554   -0.9842 C   0  0  0  0  0  0  0  0  0  0  0  0
   -6.8166   -0.1589    1.7711 C   0  0  0  0  0  0  0  0  0  0  0  0
   -2.4917    0.1890   -0.7800 C   0  0  0  0  0  0  0  0  0  0  0  0
   -8.4682   -0.2420   -0.0154 C   0  0  0  0  0  0  0  0  0  0  0  0
   -8.1460   -0.2437    1.3518 C   0  0  0  0  0  0  0  0  0  0  0  0
   -0.1869    0.3318    0.2430 C   0  0  0  0  0  0  0  0  0  0  0  0
    4.0444    0.6302    0.0983 C   0  0  0  0  0  0  0  0  0  0  0  0
    2.5943    0.5278    0.1481 C   0  0  0  0  0  0  0  0  0  0  0  0
    5.0127   -0.4939    0.0458 C   0  0  0  0  0  0  0  0  0  0  0  0
    6.3946   -0.2354    0.0018 C   0  0  0  0  0  0  0  0  0  0  0  0
    0.5511    0.3612    1.4265 C   0  0  0  0  0  0  0  0  0  0  0  0
    0.4658    0.4006   -0.9878 C   0  0  0  0  0  0  0  0  0  0  0  0
    1.9416    0.4592    1.3790 C   0  0  0  0  0  0  0  0  0  0  0  0
    1.8564    0.4988   -1.0353 C   0  0  0  0  0  0  0  0  0  0  0  0
    4.5518    1.8774    0.1006 C   0  0  0  0  0  0  0  0  0  0  0  0
    4.5829   -1.8293    0.0372 C   0  0  0  0  0  0  0  0  0  0  0  0
    6.8788    1.1686    0.0077 C   0  0  0  0  0  0  0  0  0  0  0  0
    7.3210   -1.2838   -0.0483 C   0  0  0  0  0  0  0  0  0  0  0  0
    5.5078   -2.8753   -0.0128 C   0  0  0  0  0  0  0  0  0  0  0  0
    6.8730   -2.6031   -0.0553 C   0  0  0  0  0  0  0  0  0  0  0  0
   -4.7642   -0.8513   -2.0166 H   0  0  0  0  0  0  0  0  0  0  0  0
   -4.8899    0.9421   -1.9860 H   0  0  0  0  0  0  0  0  0  0  0  0
   -4.0696    0.9397    1.5196 H   0  0  0  0  0  0  0  0  0  0  0  0
   -3.9443   -0.8595    1.4860 H   0  0  0  0  0  0  0  0  0  0  0  0
   -7.7020   -0.1531   -2.0436 H   0  0  0  0  0  0  0  0  0  0  0  0
   -6.5695   -0.1602    2.8271 H   0  0  0  0  0  0  0  0  0  0  0  0
   -8.9308   -0.3112    2.1018 H   0  0  0  0  0  0  0  0  0  0  0  0
   -1.9839    0.1872    1.2299 H   0  0  0  0  0  0  0  0  0  0  0  0
    0.0549    0.3080    2.3922 H   0  0  0  0  0  0  0  0  0  0  0  0
   -0.0304    0.3837   -1.9472 H   0  0  0  0  0  0  0  0  0  0  0  0
    2.5022    0.4798    2.3105 H   0  0  0  0  0  0  0  0  0  0  0  0
    2.3513    0.5505   -2.0024 H   0  0  0  0  0  0  0  0  0  0  0  0
    3.9288    2.7655    0.1369 H   0  0  0  0  0  0  0  0  0  0  0  0
    3.5259   -2.0817    0.0693 H   0  0  0  0  0  0  0  0  0  0  0  0
    6.1795    3.1162    0.0629 H   0  0  0  0  0  0  0  0  0  0  0  0
    8.3899   -1.0927   -0.0823 H   0  0  0  0  0  0  0  0  0  0  0  0
    5.1601   -3.9045   -0.0187 H   0  0  0  0  0  0  0  0  0  0  0  0
    7.5884   -3.4194   -0.0941 H   0  0  0  0  0  0  0  0  0  0  0  0
  1 14  1  0  0  0  0
  2 13  2  0  0  0  0
  3 27  2  0  0  0  0
  4  7  1  0  0  0  0
  4  8  1  0  0  0  0
  4 13  1  0  0  0  0
  5 13  1  0  0  0  0
  5 16  1  0  0  0  0
  5 38  1  0  0  0  0
  6 25  1  0  0  0  0
  6 27  1  0  0  0  0
  6 45  1  0  0  0  0
  7  9  1  0  0  0  0
  7 31  1  0  0  0  0
  7 32  1  0  0  0  0
  8 10  1  0  0  0  0
  8 33  1  0  0  0  0
  8 34  1  0  0  0  0
  9 10  2  0  0  0  0
  9 11  1  0  0  0  0
 10 12  1  0  0  0  0
 11 14  2  0  0  0  0
 11 35  1  0  0  0  0
 12 15  2  0  0  0  0
 12 36  1  0  0  0  0
 14 15  1  0  0  0  0
 15 37  1  0  0  0  0
 16 21  2  0  0  0  0
 16 22  1  0  0  0  0
 17 18  1  0  0  0  0
 17 19  1  0  0  0  0
 17 25  2  0  0  0  0
 18 23  2  0  0  0  0
 18 24  1  0  0  0  0
 19 20  1  0  0  0  0
 19 26  2  0  0  0  0
 20 27  1  0  0  0  0
 20 28  2  0  0  0  0
 21 23  1  0  0  0  0
 21 39  1  0  0  0  0
 22 24  2  0  0  0  0
 22 40  1  0  0  0  0
 23 41  1  0  0  0  0
 24 42  1  0  0  0  0
 25 43  1  0  0  0  0
 26 29  1  0  0  0  0
 26 44  1  0  0  0  0
 28 30  1  0  0  0  0
 28 46  1  0  0  0  0
 29 30  2  0  0  0  0
 29 47  1  0  0  0  0
 30 48  1  0  0  0  0
M  END
> <PUBCHEM_COMPOUND_CID>
57510001

> <PUBCHEM_CONFORMER_RMSD>
0.8

> <PUBCHEM_CONFORMER_DIVERSEORDER>
1
46
17
39
24
43
9
29
30
49
21
44
26
47
50
48
57
25
7
40
52
20
51
6
27
56
5
28
55
11
58
34
32
41
12
36
42
19
53
35
54
18
45
22
37
23
10
38
8
2
13
14
31
33
16
4
15
3

> <PUBCHEM_MMFF94_PARTIAL_CHARGES>
44
1 -0.18
10 -0.14
11 -0.15
12 -0.15
13 0.69
14 0.18
15 -0.15
16 0.12
17 -0.06
18 0.03
19 0.03
2 -0.57
20 0.09
21 -0.15
22 -0.15
23 -0.15
24 -0.15
25 -0.04
26 -0.15
27 0.54
28 -0.15
29 -0.15
3 -0.57
30 -0.15
35 0.15
36 0.15
37 0.15
38 0.37
39 0.15
4 -0.66
40 0.15
41 0.15
42 0.15
43 0.15
44 0.15
45 0.37
46 0.15
47 0.15
48 0.15
5 -0.55
6 -0.54
7 0.44
8 0.44
9 -0.14

> <PUBCHEM_EFFECTIVE_ROTOR_COUNT>
4.6

> <PUBCHEM_PHARMACOPHORE_FEATURES>
9
1 2 acceptor
1 3 acceptor
1 5 donor
1 6 donor
5 4 7 8 9 10 rings
6 16 18 21 22 23 24 rings
6 19 20 26 28 29 30 rings
6 6 17 19 20 25 27 rings
6 9 10 11 12 14 15 rings

> <PUBCHEM_HEAVY_ATOM_COUNT>
30

> <PUBCHEM_ATOM_DEF_STEREO_COUNT>
0

> <PUBCHEM_ATOM_UDEF_STEREO_COUNT>
0

> <PUBCHEM_BOND_DEF_STEREO_COUNT>
0

> <PUBCHEM_BOND_UDEF_STEREO_COUNT>
0

> <PUBCHEM_ISOTOPIC_ATOM_COUNT>
0

> <PUBCHEM_COMPONENT_COUNT>
1

> <PUBCHEM_CACTVS_TAUTO_COUNT>
4

> <PUBCHEM_CONFORMER_ID>
036D887100000001

> <PUBCHEM_MMFF94_ENERGY>
96.2472

> <PUBCHEM_FEATURE_SELFOVERLAP>
45.78

> <PUBCHEM_SHAPE_FINGERPRINT>
10050765 1 15070055457572094857
10299344 5 17989205953927365095
10319688 140 17970057859956586578
11607047 141 15626225668886032398
11719270 70 14779539089177123344
12082328 90 18409728440216368229
12089408 11 17275106136861710497
12133447 93 16515961459437820519
12144603 126 17489586796951674104
12236239 1 17846779594764502824
13533116 47 18343581829226213442
13560911 43 16917071070925212067
13617811 41 15791732980038327894
13685833 64 18334014969409293574
13885169 127 18113899321956668749
14028597 1 17417817180081007939
14117953 113 16588023520484504247
14118638 360 18411421679158883264
14251764 18 17489587866076406945
14251764 46 18187081771617659628
14294032 229 14852438827802282055
150020 25 17749391442654901091
15119646 104 17846500301109257654
15131766 46 17841140362207825281
15183329 4 17060340738448144625
15198563 99 17749668472420011541
15301273 46 17967250888796114949
15328684 2 17274549698274572011
15352257 5 18334016103138787371
15419008 47 17603578647391755021
15419008 91 17313651741972693645
15510794 2 18040154028830033379
1577012 14 17561080319405976021
15849732 13 17748827431897162327
16120349 18 18412824715629445736
19301679 30 17416974920199092470
19315958 150 18333736848912810978
20105231 36 17313109640106856027
20157964 124 18410012152902506544
20554085 129 14764346020451102966
20771845 140 16558461994783315118
21150785 3 12540699223601640407
21267235 1 16443071608338767917
21315759 40 18131632305376051061
21344244 181 18114185203227440978
22956985 138 16412406074479556142
23516275 137 18058752224616935207
23522609 53 17702684261679671417
24893992 56 16128648683639311415
2835820 82 18269276755864942974
3004659 81 16343703265651755480
335352 9 15913328022367264177
335507 130 18114179757192364276
34797466 226 17676207991997218916
4073 2 18127686239236801322
4098825 35 18338514140625000337
439807 62 18273494563492052352
45377200 153 18188492493041113827
5219985 9 17561082505850753025
57527295 17 17462289024733108074
59520647 119 18337389448285190439
59755656 215 17167861937209694698

> <PUBCHEM_SHAPE_MULTIPOLES>
592.57
31.14
1.72
1.29
36.28
0.87
0.08
5.95
0.84
-6.2
0.01
2.27
-0.07
0.12

> <PUBCHEM_SHAPE_SELFOVERLAP>
1316.36

> <PUBCHEM_SHAPE_VOLUME>
315.5

> <PUBCHEM_COORDINATE_TYPE>
2
5
10

$$$$
