118662899
  -OEChem-05102415123D

 46 48  0     1  0  0  0  0  0999 V2000
   -5.1536    0.9539    1.7499 F   0  0  0  0  0  0  0  0  0  0  0  0
    3.6725    2.8691   -0.9810 O   0  0  0  0  0  0  0  0  0  0  0  0
   -1.0871    2.4749    0.4619 O   0  0  0  0  0  0  0  0  0  0  0  0
   -2.0234    0.5310   -0.3873 N   0  0  0  0  0  0  0  0  0  0  0  0
    5.9830   -2.1533   -0.6629 N   0  0  0  0  0  0  0  0  0  0  0  0
    6.1550   -2.1094    0.6693 N   0  0  0  0  0  0  0  0  0  0  0  0
    2.7689    0.8586   -0.0466 C   0  0  0  0  0  0  0  0  0  0  0  0
   -3.3818    1.0185   -0.4638 C   0  0  2  0  0  0  0  0  0  0  0  0
    2.8799   -0.5282    0.0555 C   0  0  0  0  0  0  0  0  0  0  0  0
    3.9762    1.7330   -0.1657 C   0  0  2  0  0  0  0  0  0  0  0  0
    0.3626    0.6743    0.0693 C   0  0  0  0  0  0  0  0  0  0  0  0
    1.5101    1.4598   -0.0397 C   0  0  0  0  0  0  0  0  0  0  0  0
   -4.3801   -0.0956   -0.2337 C   0  0  0  0  0  0  0  0  0  0  0  0
    1.7323   -1.3137    0.1642 C   0  0  0  0  0  0  0  0  0  0  0  0
   -0.9501    1.3005    0.0765 C   0  0  0  0  0  0  0  0  0  0  0  0
    0.4737   -0.7125    0.1713 C   0  0  0  0  0  0  0  0  0  0  0  0
    4.1659   -1.1729    0.0499 C   0  0  0  0  0  0  0  0  0  0  0  0
   -3.6175    1.7503   -1.7835 C   0  0  0  0  0  0  0  0  0  0  0  0
    4.4866    2.2174    1.1931 C   0  0  0  0  0  0  0  0  0  0  0  0
   -5.2222   -0.0615    0.8778 C   0  0  0  0  0  0  0  0  0  0  0  0
   -4.4582   -1.1569   -1.1356 C   0  0  0  0  0  0  0  0  0  0  0  0
    4.8074   -1.6054   -1.0851 C   0  0  0  0  0  0  0  0  0  0  0  0
    5.0419   -1.5094    1.0992 C   0  0  0  0  0  0  0  0  0  0  0  0
   -6.1425   -1.0886    1.0875 C   0  0  0  0  0  0  0  0  0  0  0  0
   -5.3788   -2.1839   -0.9261 C   0  0  0  0  0  0  0  0  0  0  0  0
   -6.2208   -2.1499    0.1855 C   0  0  0  0  0  0  0  0  0  0  0  0
   -3.4973    1.7658    0.3310 H   0  0  0  0  0  0  0  0  0  0  0  0
    4.7863    1.2195   -0.6917 H   0  0  0  0  0  0  0  0  0  0  0  0
    1.4140    2.5406   -0.1083 H   0  0  0  0  0  0  0  0  0  0  0  0
   -1.8423   -0.3864   -0.7813 H   0  0  0  0  0  0  0  0  0  0  0  0
    1.8004   -2.3957    0.2516 H   0  0  0  0  0  0  0  0  0  0  0  0
   -0.3914   -1.3585    0.2894 H   0  0  0  0  0  0  0  0  0  0  0  0
   -4.6462    2.1212   -1.8504 H   0  0  0  0  0  0  0  0  0  0  0  0
   -2.9432    2.6091   -1.8771 H   0  0  0  0  0  0  0  0  0  0  0  0
   -3.4350    1.1042   -2.6495 H   0  0  0  0  0  0  0  0  0  0  0  0
    3.7348    2.8365    1.6962 H   0  0  0  0  0  0  0  0  0  0  0  0
    5.3740    2.8468    1.0645 H   0  0  0  0  0  0  0  0  0  0  0  0
    4.7438    1.3862    1.8555 H   0  0  0  0  0  0  0  0  0  0  0  0
   -3.8089   -1.2042   -2.0055 H   0  0  0  0  0  0  0  0  0  0  0  0
    4.5445   -1.5756   -2.1335 H   0  0  0  0  0  0  0  0  0  0  0  0
    4.9184   -1.3444    2.1603 H   0  0  0  0  0  0  0  0  0  0  0  0
    4.4788    3.4090   -1.0448 H   0  0  0  0  0  0  0  0  0  0  0  0
   -6.7978   -1.0618    1.9530 H   0  0  0  0  0  0  0  0  0  0  0  0
   -5.4393   -3.0106   -1.6278 H   0  0  0  0  0  0  0  0  0  0  0  0
   -6.9371   -2.9497    0.3489 H   0  0  0  0  0  0  0  0  0  0  0  0
    6.7111   -2.5732   -1.2272 H   0  0  0  0  0  0  0  0  0  0  0  0
  1 20  1  0  0  0  0
  2 10  1  0  0  0  0
  2 42  1  0  0  0  0
  3 15  2  0  0  0  0
  4  8  1  0  0  0  0
  4 15  1  0  0  0  0
  4 30  1  0  0  0  0
  5  6  1  0  0  0  0
  5 22  1  0  0  0  0
  5 46  1  0  0  0  0
  6 23  2  0  0  0  0
  7  9  2  0  0  0  0
  7 10  1  0  0  0  0
  7 12  1  0  0  0  0
  8 13  1  0  0  0  0
  8 18  1  0  0  0  0
  8 27  1  0  0  0  0
  9 14  1  0  0  0  0
  9 17  1  0  0  0  0
 10 19  1  0  0  0  0
 10 28  1  0  0  0  0
 11 12  2  0  0  0  0
 11 15  1  0  0  0  0
 11 16  1  0  0  0  0
 12 29  1  0  0  0  0
 13 20  1  0  0  0  0
 13 21  2  0  0  0  0
 14 16  2  0  0  0  0
 14 31  1  0  0  0  0
 16 32  1  0  0  0  0
 17 22  2  0  0  0  0
 17 23  1  0  0  0  0
 18 33  1  0  0  0  0
 18 34  1  0  0  0  0
 18 35  1  0  0  0  0
 19 36  1  0  0  0  0
 19 37  1  0  0  0  0
 19 38  1  0  0  0  0
 20 24  2  0  0  0  0
 21 25  1  0  0  0  0
 21 39  1  0  0  0  0
 22 40  1  0  0  0  0
 23 41  1  0  0  0  0
 24 26  1  0  0  0  0
 24 43  1  0  0  0  0
 25 26  2  0  0  0  0
 25 44  1  0  0  0  0
 26 45  1  0  0  0  0
M  END
> <PUBCHEM_COMPOUND_CID>
118662899

> <PUBCHEM_CONFORMER_RMSD>
0.8

> <PUBCHEM_CONFORMER_DIVERSEORDER>
2
66
141
82
101
64
152
78
26
30
132
23
20
129
142
59
62
144
114
40
135
96
126
4
113
55
134
47
76
83
127
100
92
133
145
123
119
110
17
125
80
89
38
107
117
34
63
85
111
94
24
16
13
87
54
151
146
143
32
28
131
43
84
53
37
81
128
147
50
65
5
33
115
45
140
91
68
104
35
60
25
98
31
56
69
103
58
77
105
22
27
99
79
106
112
41
61
36
29
124
57
93
138
118
108
136
10
74
42
21
71
102
14
6
130
11
148
88
12
86
97
137
49
122
109
8
73
121
39
95
19
90
9
3
120
18
150
75
149
46
116
52
1
51
139
48
15
70
44
72
67
7

> <PUBCHEM_MMFF94_PARTIAL_CHARGES>
36
1 -0.19
10 0.42
11 0.09
12 -0.15
13 -0.14
14 -0.15
15 0.54
16 -0.15
17 -0.05
2 -0.68
20 0.19
21 -0.15
22 -0.3
23 0.14
24 -0.15
25 -0.15
26 -0.15
29 0.15
3 -0.57
30 0.37
31 0.15
32 0.15
39 0.15
4 -0.73
40 0.15
41 0.15
42 0.4
43 0.15
44 0.15
45 0.15
46 0.27
5 0.3
6 -0.71
7 -0.14
8 0.44
9 0.05

> <PUBCHEM_EFFECTIVE_ROTOR_COUNT>
6

> <PUBCHEM_PHARMACOPHORE_FEATURES>
9
1 2 acceptor
1 2 donor
1 3 acceptor
1 4 donor
1 5 donor
1 6 acceptor
5 5 6 17 22 23 rings
6 13 20 21 24 25 26 rings
6 7 9 11 12 14 16 rings

> <PUBCHEM_HEAVY_ATOM_COUNT>
26

> <PUBCHEM_ATOM_DEF_STEREO_COUNT>
0

> <PUBCHEM_ATOM_UDEF_STEREO_COUNT>
2

> <PUBCHEM_BOND_DEF_STEREO_COUNT>
0

> <PUBCHEM_BOND_UDEF_STEREO_COUNT>
0

> <PUBCHEM_ISOTOPIC_ATOM_COUNT>
0

> <PUBCHEM_COMPONENT_COUNT>
1

> <PUBCHEM_CACTVS_TAUTO_COUNT>
9

> <PUBCHEM_CONFORMER_ID>
0712A6F300000002

> <PUBCHEM_MMFF94_ENERGY>
64.972

> <PUBCHEM_FEATURE_SELFOVERLAP>
45.672

> <PUBCHEM_SHAPE_FINGERPRINT>
11963148 33 18120364612872681978
12107183 9 18127986217571102433
12166972 35 17894918420951246348
12422481 6 17203611449769587494
12596602 18 17917716833524288099
12616971 3 17989481922481728517
13073987 5 18201440315497736489
13533116 47 18413389860843814640
13782708 43 17967810526955613946
13955234 65 18341888649907592304
14347332 77 18335138661454994005
14849402 71 18201717410056549384
15064981 113 13552288421485651771
15196674 1 18411416224328396909
15880784 105 18413393155036043707
16110190 28 18201720682652576431
17349148 13 18040438767417250105
17492 89 18340767048887966030
17780758 139 17917711271657645091
17844677 252 18335139769657023501
18222031 100 16515684459131041375
19377110 9 17988639735366987224
19841028 212 18265607866347183363
20028762 73 18342738507423194886
21150785 3 16805613568443377454
21267235 1 18410579465609205950
21315763 191 18131355198201771323
21709351 56 18188203213110936317
22149856 69 18339374049618564721
22393880 68 18041549244228414613
22950370 63 18343587373670523533
23522609 53 18120971401367389684
23559900 14 18338221679185243584
3004659 81 18261107469693718375
314194 84 18269835470884560383
3388396 114 16807325524905838148
34797466 226 16009320901967017597
3663271 9 18060142080575424793
465052 167 18341615885071654342
5104073 3 18273493468307352649
54039377 194 18341336625981823798
7495541 125 17988919002587829480
8863177 126 18261117412648854843

> <PUBCHEM_SHAPE_MULTIPOLES>
501.11
17.32
2.88
1.21
7.28
0.43
0.02
-10.3
-1.79
-2.3
0.28
0.84
0.16
0.19

> <PUBCHEM_SHAPE_SELFOVERLAP>
1087.698

> <PUBCHEM_SHAPE_VOLUME>
276.2

> <PUBCHEM_COORDINATE_TYPE>
2
5
10

$$$$
90354222
  -OEChem-05102415123D

 43 45  0     1  0  0  0  0  0999 V2000
    3.9828    0.0348    2.4723 Cl  0  0  0  0  0  0  0  0  0  0  0  0
   -3.9956    1.8269    0.0365 O   0  0  0  0  0  0  0  0  0  0  0  0
    0.9817    2.5093    0.7593 O   0  0  0  0  0  0  0  0  0  0  0  0
    1.8892    0.6797   -0.3387 N   0  0  0  0  0  0  0  0  0  0  0  0
   -6.0495   -2.2288    0.4215 N   0  0  0  0  0  0  0  0  0  0  0  0
   -6.4087   -1.6407   -0.7323 N   0  0  0  0  0  0  0  0  0  0  0  0
    3.2598    1.1383   -0.3244 C   0  0  1  0  0  0  0  0  0  0  0  0
    4.2311   -0.0194   -0.2414 C   0  0  0  0  0  0  0  0  0  0  0  0
    3.5246    2.0405   -1.5280 C   0  0  0  0  0  0  0  0  0  0  0  0
   -0.4940    0.7959    0.1391 C   0  0  0  0  0  0  0  0  0  0  0  0
    0.8251    1.4040    0.2110 C   0  0  0  0  0  0  0  0  0  0  0  0
   -3.0239   -0.3714   -0.0022 C   0  0  0  0  0  0  0  0  0  0  0  0
   -2.8984    1.0169    0.0510 C   0  0  0  0  0  0  0  0  0  0  0  0
   -1.6334    1.6005    0.1217 C   0  0  0  0  0  0  0  0  0  0  0  0
    4.6075   -0.5730    0.9823 C   0  0  0  0  0  0  0  0  0  0  0  0
    4.7535   -0.5321   -1.4289 C   0  0  0  0  0  0  0  0  0  0  0  0
   -0.6197   -0.5924    0.0860 C   0  0  0  0  0  0  0  0  0  0  0  0
   -1.8846   -1.1760    0.0157 C   0  0  0  0  0  0  0  0  0  0  0  0
   -4.3183   -0.9937   -0.0771 C   0  0  0  0  0  0  0  0  0  0  0  0
    5.5063   -1.6391    1.0188 C   0  0  0  0  0  0  0  0  0  0  0  0
    5.6520   -1.5984   -1.3926 C   0  0  0  0  0  0  0  0  0  0  0  0
    6.0286   -2.1518   -0.1688 C   0  0  0  0  0  0  0  0  0  0  0  0
   -4.8063   -1.8747    0.8569 C   0  0  0  0  0  0  0  0  0  0  0  0
   -5.3473   -0.8874   -1.0320 C   0  0  0  0  0  0  0  0  0  0  0  0
   -3.7624    3.2320    0.0944 C   0  0  0  0  0  0  0  0  0  0  0  0
    3.3969    1.7875    0.5483 H   0  0  0  0  0  0  0  0  0  0  0  0
    1.7010   -0.1776   -0.8485 H   0  0  0  0  0  0  0  0  0  0  0  0
    2.9338    2.9609   -1.4428 H   0  0  0  0  0  0  0  0  0  0  0  0
    4.5775    2.3367   -1.5940 H   0  0  0  0  0  0  0  0  0  0  0  0
    3.2235    1.5811   -2.4762 H   0  0  0  0  0  0  0  0  0  0  0  0
   -1.4763    2.6729    0.1581 H   0  0  0  0  0  0  0  0  0  0  0  0
    4.4753   -0.1525   -2.4060 H   0  0  0  0  0  0  0  0  0  0  0  0
    0.2395   -1.2557    0.1269 H   0  0  0  0  0  0  0  0  0  0  0  0
   -1.9597   -2.2604   -0.0230 H   0  0  0  0  0  0  0  0  0  0  0  0
    5.8096   -2.0819    1.9641 H   0  0  0  0  0  0  0  0  0  0  0  0
    6.0549   -2.0017   -2.3171 H   0  0  0  0  0  0  0  0  0  0  0  0
    6.7274   -2.9828   -0.1408 H   0  0  0  0  0  0  0  0  0  0  0  0
   -4.3969   -2.2758    1.7738 H   0  0  0  0  0  0  0  0  0  0  0  0
   -5.3715   -0.2941   -1.9354 H   0  0  0  0  0  0  0  0  0  0  0  0
   -6.7043   -2.8638    0.8606 H   0  0  0  0  0  0  0  0  0  0  0  0
   -4.7426    3.7202    0.0746 H   0  0  0  0  0  0  0  0  0  0  0  0
   -3.2160    3.5891   -0.7853 H   0  0  0  0  0  0  0  0  0  0  0  0
   -3.2843    3.5258    1.0352 H   0  0  0  0  0  0  0  0  0  0  0  0
  1 15  1  0  0  0  0
  2 13  1  0  0  0  0
  2 25  1  0  0  0  0
  3 11  2  0  0  0  0
  4  7  1  0  0  0  0
  4 11  1  0  0  0  0
  4 27  1  0  0  0  0
  5  6  1  0  0  0  0
  5 23  1  0  0  0  0
  5 40  1  0  0  0  0
  6 24  2  0  0  0  0
  7  8  1  0  0  0  0
  7  9  1  0  0  0  0
  7 26  1  0  0  0  0
  8 15  1  0  0  0  0
  8 16  2  0  0  0  0
  9 28  1  0  0  0  0
  9 29  1  0  0  0  0
  9 30  1  0  0  0  0
 10 11  1  0  0  0  0
 10 14  2  0  0  0  0
 10 17  1  0  0  0  0
 12 13  2  0  0  0  0
 12 18  1  0  0  0  0
 12 19  1  0  0  0  0
 13 14  1  0  0  0  0
 14 31  1  0  0  0  0
 15 20  2  0  0  0  0
 16 21  1  0  0  0  0
 16 32  1  0  0  0  0
 17 18  2  0  0  0  0
 17 33  1  0  0  0  0
 18 34  1  0  0  0  0
 19 23  2  0  0  0  0
 19 24  1  0  0  0  0
 20 22  1  0  0  0  0
 20 35  1  0  0  0  0
 21 22  2  0  0  0  0
 21 36  1  0  0  0  0
 22 37  1  0  0  0  0
 23 38  1  0  0  0  0
 24 39  1  0  0  0  0
 25 41  1  0  0  0  0
 25 42  1  0  0  0  0
 25 43  1  0  0  0  0
M  END
> <PUBCHEM_COMPOUND_CID>
90354222

> <PUBCHEM_CONFORMER_RMSD>
0.8

> <PUBCHEM_CONFORMER_DIVERSEORDER>
5
48
18
46
21
20
28
37
27
47
33
50
6
52
51
23
14
41
30
22
29
17
34
2
38
53
36
15
39
40
16
35
49
32
24
31
26
45
19
1
42
8
11
43
9
25
13
7
12
44
4
10
3

> <PUBCHEM_MMFF94_PARTIAL_CHARGES>
35
1 -0.18
10 0.09
11 0.54
12 0.05
13 0.08
14 -0.15
15 0.18
16 -0.15
17 -0.15
18 -0.15
19 -0.05
2 -0.36
20 -0.15
21 -0.15
22 -0.15
23 -0.3
24 0.14
25 0.28
27 0.37
3 -0.57
31 0.15
32 0.15
33 0.15
34 0.15
35 0.15
36 0.15
37 0.15
38 0.15
39 0.15
4 -0.73
40 0.27
5 0.3
6 -0.71
7 0.44
8 -0.14

> <PUBCHEM_EFFECTIVE_ROTOR_COUNT>
6

> <PUBCHEM_PHARMACOPHORE_FEATURES>
8
1 2 acceptor
1 3 acceptor
1 4 donor
1 5 donor
1 6 acceptor
5 5 6 19 23 24 rings
6 10 12 13 14 17 18 rings
6 8 15 16 20 21 22 rings

> <PUBCHEM_HEAVY_ATOM_COUNT>
25

> <PUBCHEM_ATOM_DEF_STEREO_COUNT>
1

> <PUBCHEM_ATOM_UDEF_STEREO_COUNT>
0

> <PUBCHEM_BOND_DEF_STEREO_COUNT>
0

> <PUBCHEM_BOND_UDEF_STEREO_COUNT>
0

> <PUBCHEM_ISOTOPIC_ATOM_COUNT>
0

> <PUBCHEM_COMPONENT_COUNT>
1

> <PUBCHEM_CACTVS_TAUTO_COUNT>
7

> <PUBCHEM_CONFORMER_ID>
0562B22E00000005

> <PUBCHEM_MMFF94_ENERGY>
74.6834

> <PUBCHEM_FEATURE_SELFOVERLAP>
40.597

> <PUBCHEM_SHAPE_FINGERPRINT>
10 15 11239998971102398647
10595046 47 18334584576567825044
11545043 162 18059852827207342560
11796584 16 18040711519347447035
11809386 21 18335138657460518595
12166972 35 18408046221078773204
12422481 6 17418099844905551943
12760667 363 18341614836983439819
13073987 5 18413108381182116696
13150687 139 18052562121288630324
13533116 47 18337392754865617636
13782708 43 17917428774357768575
13862211 1 18342455976147740847
14118638 360 18337396032131899756
14251740 57 18413669119743786544
14347332 77 18412544327706462829
14528608 73 11602819124691164394
15183329 4 17748822999242889103
15188451 53 18342448227873517514
15250474 111 18187080641920188818
16990350 14 16682882459351375209
17349148 13 18411707577560998950
17844677 252 18411141337710413424
17857418 61 18411135857158050767
18681886 176 18410577293299720524
19377110 9 12535335814202440573
21267235 1 18410581690354805463
21279426 13 18335412479064178509
21682296 61 18202007603231210431
22061861 79 17894344505756673855
23522609 53 18052855621514574121
23559900 14 18261951976739964361
29717793 49 18334574659165896500
300161 21 9511464402901538487
3004659 81 18260548939762564358
3383291 50 18409727382710980275
34797466 226 16443910616914174357
4017518 198 15302203693309704018
4340502 62 14045747023553459070
44062 13 18337674113736091893
465052 167 18342463693718571295
5104073 3 18273217499452536680
559249 180 18337952281577103743
59682541 52 15502919879302565619
7970288 3 18335136437290364202
86090 222 16844473590692510574
960060 61 16515404062834784198

> <PUBCHEM_SHAPE_MULTIPOLES>
489.68
16.71
2.82
1.36
1.67
1.18
-0.36
-11.73
1.76
2.12
0.03
-2.21
-0.11
-0.28

> <PUBCHEM_SHAPE_SELFOVERLAP>
1054.712

> <PUBCHEM_SHAPE_VOLUME>
271.2

> <PUBCHEM_COORDINATE_TYPE>
2
5
10

$$$$
118668476
  -OEChem-05102415123D

 44 46  0     1  0  0  0  0  0999 V2000
    7.2800    2.6483    0.6907 Cl  0  0  0  0  0  0  0  0  0  0  0  0
    3.1239   -1.6451    1.5960 O   0  0  0  0  0  0  0  0  0  0  0  0
   -3.8888   -1.9479   -0.3719 O   0  0  0  0  0  0  0  0  0  0  0  0
    0.9540    1.3103   -1.3029 O   0  0  0  0  0  0  0  0  0  0  0  0
    1.0318   -0.8610   -0.4930 N   0  0  0  0  0  0  0  0  0  0  0  0
   -7.1465    0.8829    1.1058 N   0  0  0  0  0  0  0  0  0  0  0  0
   -7.5052    0.3471   -0.0734 N   0  0  0  0  0  0  0  0  0  0  0  0
    3.2166   -0.6213    0.6053 C   0  0  2  0  0  0  0  0  0  0  0  0
    2.4563   -1.0479   -0.6506 C   0  0  0  0  0  0  0  0  0  0  0  0
    4.6776   -0.3662    0.3156 C   0  0  0  0  0  0  0  0  0  0  0  0
   -1.0694    0.3623   -0.5922 C   0  0  0  0  0  0  0  0  0  0  0  0
   -3.8188    0.4420   -0.1255 C   0  0  0  0  0  0  0  0  0  0  0  0
    0.3641    0.3211   -0.8336 C   0  0  0  0  0  0  0  0  0  0  0  0
   -3.1866   -0.7787   -0.3620 C   0  0  0  0  0  0  0  0  0  0  0  0
   -1.8120   -0.8185   -0.5953 C   0  0  0  0  0  0  0  0  0  0  0  0
   -1.7017    1.5832   -0.3557 C   0  0  0  0  0  0  0  0  0  0  0  0
   -3.0763    1.6230   -0.1226 C   0  0  0  0  0  0  0  0  0  0  0  0
   -5.2346    0.5057    0.1190 C   0  0  0  0  0  0  0  0  0  0  0  0
    5.2390    0.8778    0.6034 C   0  0  0  0  0  0  0  0  0  0  0  0
    5.4651   -1.3753   -0.2391 C   0  0  0  0  0  0  0  0  0  0  0  0
    6.5879    1.1129    0.3369 C   0  0  0  0  0  0  0  0  0  0  0  0
    6.8138   -1.1401   -0.5059 C   0  0  0  0  0  0  0  0  0  0  0  0
   -5.7975    0.9995    1.2706 C   0  0  0  0  0  0  0  0  0  0  0  0
    7.3753    0.1038   -0.2177 C   0  0  0  0  0  0  0  0  0  0  0  0
   -6.3331    0.1187   -0.6718 C   0  0  0  0  0  0  0  0  0  0  0  0
   -4.0150   -2.6365    0.8700 C   0  0  0  0  0  0  0  0  0  0  0  0
    2.7644    0.2815    1.0342 H   0  0  0  0  0  0  0  0  0  0  0  0
    2.6074   -2.1109   -0.8691 H   0  0  0  0  0  0  0  0  0  0  0  0
    2.7767   -0.4648   -1.5217 H   0  0  0  0  0  0  0  0  0  0  0  0
    0.5276   -1.6203   -0.0479 H   0  0  0  0  0  0  0  0  0  0  0  0
   -1.3583   -1.7828   -0.8074 H   0  0  0  0  0  0  0  0  0  0  0  0
   -1.1406    2.5140   -0.3451 H   0  0  0  0  0  0  0  0  0  0  0  0
   -3.5493    2.5859    0.0563 H   0  0  0  0  0  0  0  0  0  0  0  0
    4.6258    1.6653    1.0354 H   0  0  0  0  0  0  0  0  0  0  0  0
    5.0465   -2.3524   -0.4642 H   0  0  0  0  0  0  0  0  0  0  0  0
    2.1788   -1.8065    1.7589 H   0  0  0  0  0  0  0  0  0  0  0  0
    7.4272   -1.9261   -0.9366 H   0  0  0  0  0  0  0  0  0  0  0  0
   -5.3759    1.4135    2.1762 H   0  0  0  0  0  0  0  0  0  0  0  0
    8.4278    0.2725   -0.4307 H   0  0  0  0  0  0  0  0  0  0  0  0
   -6.3327   -0.3202   -1.6597 H   0  0  0  0  0  0  0  0  0  0  0  0
   -7.8771    1.1474    1.7547 H   0  0  0  0  0  0  0  0  0  0  0  0
   -4.4925   -2.0041    1.6246 H   0  0  0  0  0  0  0  0  0  0  0  0
   -3.0326   -2.9643    1.2248 H   0  0  0  0  0  0  0  0  0  0  0  0
   -4.6399   -3.5193    0.7095 H   0  0  0  0  0  0  0  0  0  0  0  0
  1 21  1  0  0  0  0
  2  8  1  0  0  0  0
  2 36  1  0  0  0  0
  3 14  1  0  0  0  0
  3 26  1  0  0  0  0
  4 13  2  0  0  0  0
  5  9  1  0  0  0  0
  5 13  1  0  0  0  0
  5 30  1  0  0  0  0
  6  7  1  0  0  0  0
  6 23  1  0  0  0  0
  6 41  1  0  0  0  0
  7 25  2  0  0  0  0
  8  9  1  0  0  0  0
  8 10  1  0  0  0  0
  8 27  1  0  0  0  0
  9 28  1  0  0  0  0
  9 29  1  0  0  0  0
 10 19  2  0  0  0  0
 10 20  1  0  0  0  0
 11 13  1  0  0  0  0
 11 15  2  0  0  0  0
 11 16  1  0  0  0  0
 12 14  2  0  0  0  0
 12 17  1  0  0  0  0
 12 18  1  0  0  0  0
 14 15  1  0  0  0  0
 15 31  1  0  0  0  0
 16 17  2  0  0  0  0
 16 32  1  0  0  0  0
 17 33  1  0  0  0  0
 18 23  2  0  0  0  0
 18 25  1  0  0  0  0
 19 21  1  0  0  0  0
 19 34  1  0  0  0  0
 20 22  2  0  0  0  0
 20 35  1  0  0  0  0
 21 24  2  0  0  0  0
 22 24  1  0  0  0  0
 22 37  1  0  0  0  0
 23 38  1  0  0  0  0
 24 39  1  0  0  0  0
 25 40  1  0  0  0  0
 26 42  1  0  0  0  0
 26 43  1  0  0  0  0
 26 44  1  0  0  0  0
M  END
> <PUBCHEM_COMPOUND_CID>
118668476

> <PUBCHEM_CONFORMER_RMSD>
0.8

> <PUBCHEM_CONFORMER_DIVERSEORDER>
1
91
89
93
237
288
68
287
249
184
102
211
8
43
141
114
219
279
207
97
117
44
195
115
138
176
224
177
214
286
34
129
210
274
175
131
251
163
61
185
143
47
86
76
128
191
290
294
160
99
194
233
56
308
192
199
112
146
2
84
187
271
169
307
111
4
161
278
165
200
121
168
179
230
83
149
15
70
302
88
247
261
156
3
198
252
145
180
158
60
216
125
190
283
51
157
221
240
256
209
272
152
202
201
71
212
300
59
253
174
206
234
268
54
205
204
105
172
193
220
229
52
100
75
164
46
181
95
258
120
12
208
154
103
225
122
227
250
64
39
113
304
213
284
130
215
217
36
167
17
126
303
123
135
16
35
262
182
118
270
299
291
197
98
69
196
24
188
72
257
55
254
32
178
50
292
218
40
87
203
81
222
305
13
101
296
150
159
189
226
134
155
276
232
186
267
67
49
42
243
132
139
264
140
297
255
137
239
295
80
29
38
248
6
263
136
92
266
10
23
280
241
107
57
104
31
116
293
238
22
58
77
79
275
20
173
82
269
65
273
153
78
265
144
147
236
73
30
124
133
289
282
148
246
151
162
66
127
260
285
235
298
228
37
19
301
94
281
53
171
277
85
259
223
7
25
231
74
242
48
108
33
110
27
183
18
14
244
309
245
166
63
106
28
170
26
96
119
90
62
306
41
9
109
45
5
142
21
11

> <PUBCHEM_MMFF94_PARTIAL_CHARGES>
38
1 -0.18
10 -0.14
11 0.09
12 0.05
13 0.54
14 0.08
15 -0.15
16 -0.15
17 -0.15
18 -0.05
19 -0.15
2 -0.68
20 -0.15
21 0.18
22 -0.15
23 -0.3
24 -0.15
25 0.14
26 0.28
3 -0.36
30 0.37
31 0.15
32 0.15
33 0.15
34 0.15
35 0.15
36 0.4
37 0.15
38 0.15
39 0.15
4 -0.57
40 0.15
41 0.27
5 -0.73
6 0.3
7 -0.71
8 0.42
9 0.3

> <PUBCHEM_EFFECTIVE_ROTOR_COUNT>
7

> <PUBCHEM_PHARMACOPHORE_FEATURES>
10
1 2 acceptor
1 2 donor
1 3 acceptor
1 4 acceptor
1 5 donor
1 6 donor
1 7 acceptor
5 6 7 18 23 25 rings
6 10 19 20 21 22 24 rings
6 11 12 14 15 16 17 rings

> <PUBCHEM_HEAVY_ATOM_COUNT>
26

> <PUBCHEM_ATOM_DEF_STEREO_COUNT>
0

> <PUBCHEM_ATOM_UDEF_STEREO_COUNT>
1

> <PUBCHEM_BOND_DEF_STEREO_COUNT>
0

> <PUBCHEM_BOND_UDEF_STEREO_COUNT>
0

> <PUBCHEM_ISOTOPIC_ATOM_COUNT>
0

> <PUBCHEM_COMPONENT_COUNT>
1

> <PUBCHEM_CACTVS_TAUTO_COUNT>
9

> <PUBCHEM_CONFORMER_ID>
0712BCBC00000001

> <PUBCHEM_MMFF94_ENERGY>
71.9282

> <PUBCHEM_FEATURE_SELFOVERLAP>
50.748

> <PUBCHEM_SHAPE_FINGERPRINT>
10 15 18187081763149096400
10299344 5 17917710188587368808
106641 1 18412831300715903731
10670039 82 11455899039762012259
11315181 36 18202563999760194461
11524674 6 16153716427238282241
11719270 70 14129055903188920912
11991303 11 14907887319039159917
12516196 113 17022623057151253740
12596602 18 18342459270355638322
12616971 3 17023191560191713199
12838862 33 17967799558109968551
13533116 47 17895470311485602602
13668630 136 14562535050671267426
13914758 101 10879999051178346979
14251757 52 17704068525955653752
14251764 18 18201999936872491741
14341114 176 18411138013643083556
14394314 77 18334577889862823145
14849402 71 18130787905652188969
14933364 13 18343021090880288452
15183329 4 11600009855908891492
15461852 350 17346313830640455295
15537594 2 17603865585218361666
2026 5 11458685206891594848
21033648 29 17987785415343817370
21315759 40 15267339617636383004
22122407 14 16773802519060008491
221357 26 9007054656156704703
22224240 67 18334856121432070650
23035841 295 18408321060357307058
23559900 14 18337946900268236825
23622692 88 18260268542849135935
24771293 8 18042963358728578156
2747138 104 17822019700550016656
3383291 50 18115034112515094595
34797466 226 18060704975021448676
4073 2 18335704983343260866
4325135 7 18259985964134356284
5104073 3 18264498441432870953
5283156 175 8070029973719837709
5758199 1 18259984894782471130
59682541 35 18260552250786957801
59755656 520 15267049338198697397
67856867 119 18189057653968528389
7226269 152 18343019948719960625

> <PUBCHEM_SHAPE_MULTIPOLES>
504.39
23.31
2.09
1.05
9.01
0.08
-0.17
-5.82
-4.15
1.11
-0.43
-0.28
0.04
0.47

> <PUBCHEM_SHAPE_SELFOVERLAP>
1082.434

> <PUBCHEM_SHAPE_VOLUME>
279.7

> <PUBCHEM_COORDINATE_TYPE>
2
5
10

$$$$
90354118
  -OEChem-05102415123D

 43 45  0     1  0  0  0  0  0999 V2000
    3.6123    1.6713    1.0053 O   0  0  0  0  0  0  0  0  0  0  0  0
   -1.1459    2.6242   -0.4825 O   0  0  0  0  0  0  0  0  0  0  0  0
   -2.0680    0.4980   -0.5585 N   0  0  0  0  0  0  0  0  0  0  0  0
    6.1123   -1.7683   -0.6482 N   0  0  0  0  0  0  0  0  0  0  0  0
    6.1580   -1.7726    0.6950 N   0  0  0  0  0  0  0  0  0  0  0  0
   -3.4452    0.9169   -0.6883 C   0  0  2  0  0  0  0  0  0  0  0  0
   -4.3844   -0.0657   -0.0228 C   0  0  0  0  0  0  0  0  0  0  0  0
   -3.7979    1.1605   -2.1542 C   0  0  0  0  0  0  0  0  0  0  0  0
    0.3371    0.8118   -0.3618 C   0  0  0  0  0  0  0  0  0  0  0  0
   -0.9935    1.3899   -0.4627 C   0  0  0  0  0  0  0  0  0  0  0  0
    2.8886   -0.2993   -0.1655 C   0  0  0  0  0  0  0  0  0  0  0  0
    2.6330    0.9607    0.3759 C   0  0  0  0  0  0  0  0  0  0  0  0
    1.3572    1.5162    0.2777 C   0  0  0  0  0  0  0  0  0  0  0  0
    0.5927   -0.4481   -0.9032 C   0  0  0  0  0  0  0  0  0  0  0  0
   -4.6485    0.0376    1.3430 C   0  0  0  0  0  0  0  0  0  0  0  0
   -4.9855   -1.0748   -0.7752 C   0  0  0  0  0  0  0  0  0  0  0  0
    1.8684   -1.0035   -0.8053 C   0  0  0  0  0  0  0  0  0  0  0  0
    4.1960   -0.8913   -0.0739 C   0  0  0  0  0  0  0  0  0  0  0  0
   -5.5142   -0.8682    1.9564 C   0  0  0  0  0  0  0  0  0  0  0  0
   -5.8511   -1.9806   -0.1617 C   0  0  0  0  0  0  0  0  0  0  0  0
   -6.1156   -1.8771    1.2041 C   0  0  0  0  0  0  0  0  0  0  0  0
    4.9582   -1.2506   -1.1586 C   0  0  0  0  0  0  0  0  0  0  0  0
    4.9848   -1.2357    1.0401 C   0  0  0  0  0  0  0  0  0  0  0  0
    3.2513    2.9489    1.5249 C   0  0  0  0  0  0  0  0  0  0  0  0
   -3.5545    1.8825   -0.1764 H   0  0  0  0  0  0  0  0  0  0  0  0
   -1.8988   -0.5015   -0.5140 H   0  0  0  0  0  0  0  0  0  0  0  0
   -3.2153    2.0035   -2.5450 H   0  0  0  0  0  0  0  0  0  0  0  0
   -4.8572    1.4084   -2.2831 H   0  0  0  0  0  0  0  0  0  0  0  0
   -3.5543    0.3039   -2.7925 H   0  0  0  0  0  0  0  0  0  0  0  0
    1.1005    2.4876    0.6859 H   0  0  0  0  0  0  0  0  0  0  0  0
   -0.1628   -1.0175   -1.4366 H   0  0  0  0  0  0  0  0  0  0  0  0
   -4.1847    0.8180    1.9404 H   0  0  0  0  0  0  0  0  0  0  0  0
   -4.7935   -1.2035   -1.8351 H   0  0  0  0  0  0  0  0  0  0  0  0
    2.0465   -1.9861   -1.2363 H   0  0  0  0  0  0  0  0  0  0  0  0
   -5.7194   -0.7883    3.0199 H   0  0  0  0  0  0  0  0  0  0  0  0
   -6.3161   -2.7693   -0.7461 H   0  0  0  0  0  0  0  0  0  0  0  0
   -6.7887   -2.5829    1.6818 H   0  0  0  0  0  0  0  0  0  0  0  0
    4.7944   -1.1878   -2.2257 H   0  0  0  0  0  0  0  0  0  0  0  0
    4.7570   -1.1201    2.0905 H   0  0  0  0  0  0  0  0  0  0  0  0
    6.9072   -2.1351   -1.1566 H   0  0  0  0  0  0  0  0  0  0  0  0
    4.1492    3.3711    1.9885 H   0  0  0  0  0  0  0  0  0  0  0  0
    2.4983    2.8669    2.3163 H   0  0  0  0  0  0  0  0  0  0  0  0
    2.9534    3.6410    0.7298 H   0  0  0  0  0  0  0  0  0  0  0  0
  1 12  1  0  0  0  0
  1 24  1  0  0  0  0
  2 10  2  0  0  0  0
  3  6  1  0  0  0  0
  3 10  1  0  0  0  0
  3 26  1  0  0  0  0
  4  5  1  0  0  0  0
  4 22  1  0  0  0  0
  4 40  1  0  0  0  0
  5 23  2  0  0  0  0
  6  7  1  0  0  0  0
  6  8  1  0  0  0  0
  6 25  1  0  0  0  0
  7 15  2  0  0  0  0
  7 16  1  0  0  0  0
  8 27  1  0  0  0  0
  8 28  1  0  0  0  0
  8 29  1  0  0  0  0
  9 10  1  0  0  0  0
  9 13  2  0  0  0  0
  9 14  1  0  0  0  0
 11 12  2  0  0  0  0
 11 17  1  0  0  0  0
 11 18  1  0  0  0  0
 12 13  1  0  0  0  0
 13 30  1  0  0  0  0
 14 17  2  0  0  0  0
 14 31  1  0  0  0  0
 15 19  1  0  0  0  0
 15 32  1  0  0  0  0
 16 20  2  0  0  0  0
 16 33  1  0  0  0  0
 17 34  1  0  0  0  0
 18 22  2  0  0  0  0
 18 23  1  0  0  0  0
 19 21  2  0  0  0  0
 19 35  1  0  0  0  0
 20 21  1  0  0  0  0
 20 36  1  0  0  0  0
 21 37  1  0  0  0  0
 22 38  1  0  0  0  0
 23 39  1  0  0  0  0
 24 41  1  0  0  0  0
 24 42  1  0  0  0  0
 24 43  1  0  0  0  0
M  END
> <PUBCHEM_COMPOUND_CID>
90354118

> <PUBCHEM_CONFORMER_RMSD>
0.8

> <PUBCHEM_CONFORMER_DIVERSEORDER>
7
37
15
27
17
19
9
4
35
24
31
36
18
30
3
16
38
34
21
10
22
11
20
1
26
8
12
28
33
32
25
2
14
29
5
13
6
23

> <PUBCHEM_MMFF94_PARTIAL_CHARGES>
35
1 -0.36
10 0.54
11 0.05
12 0.08
13 -0.15
14 -0.15
15 -0.15
16 -0.15
17 -0.15
18 -0.05
19 -0.15
2 -0.57
20 -0.15
21 -0.15
22 -0.3
23 0.14
24 0.28
26 0.37
3 -0.73
30 0.15
31 0.15
32 0.15
33 0.15
34 0.15
35 0.15
36 0.15
37 0.15
38 0.15
39 0.15
4 0.3
40 0.27
5 -0.71
6 0.44
7 -0.14
9 0.09

> <PUBCHEM_EFFECTIVE_ROTOR_COUNT>
6

> <PUBCHEM_PHARMACOPHORE_FEATURES>
8
1 1 acceptor
1 2 acceptor
1 3 donor
1 4 donor
1 5 acceptor
5 4 5 18 22 23 rings
6 7 15 16 19 20 21 rings
6 9 11 12 13 14 17 rings

> <PUBCHEM_HEAVY_ATOM_COUNT>
24

> <PUBCHEM_ATOM_DEF_STEREO_COUNT>
0

> <PUBCHEM_ATOM_UDEF_STEREO_COUNT>
1

> <PUBCHEM_BOND_DEF_STEREO_COUNT>
0

> <PUBCHEM_BOND_UDEF_STEREO_COUNT>
0

> <PUBCHEM_ISOTOPIC_ATOM_COUNT>
0

> <PUBCHEM_COMPONENT_COUNT>
1

> <PUBCHEM_CACTVS_TAUTO_COUNT>
7

> <PUBCHEM_CONFORMER_ID>
0562B1C600000007

> <PUBCHEM_MMFF94_ENERGY>
71.5358

> <PUBCHEM_FEATURE_SELFOVERLAP>
40.597

> <PUBCHEM_SHAPE_FINGERPRINT>
10 15 13686295807720009743
10076449 9 18201168672487149950
10693767 8 13984930794023266304
11545043 162 18261387823884541821
11796584 16 17751070311069035314
12035758 1 18131339801134658794
12616971 3 17274820276807877725
12633257 1 17704351082577963333
13103583 49 18059307504332330355
13540713 4 18265874943786441716
13673619 4 18409453570297894252
13782708 43 18260828168361128886
13955234 65 18200304550468019464
14123256 34 18412270514788241590
14341114 328 16845301587519887953
14528608 73 13118004404987692918
14739800 52 15553299605556608048
14849402 71 17632009875260962280
14950920 106 17846219981789700451
15183329 4 14056993932510693955
15238133 3 15626230125547627522
15475509 35 18040985221161196898
15510800 12 17678464276163463283
15880784 105 18343303708381740195
1601671 61 9655567522568036262
17780758 139 18202286875448256961
17844677 252 18342458140668917509
17870717 6 16660360407755827251
18222031 100 17168140161012018381
18785283 64 18271802471570263896
18927931 339 18335985281651413159
19377110 9 16845001429003007225
19841028 212 18198330961688450063
20028762 73 18131348630817851799
20281389 69 11959726062397789711
20567600 247 17604144831703001970
21033650 10 16805878481926338405
21049683 271 18411141360077339140
21054139 6 17167863028690654514
21065201 7 17749374945785847829
21150785 3 16081095891584074910
2260408 40 16558479603990212782
2303208 19 18334293171267373461
23402655 69 11169910597936418905
23522609 53 18048351961145744820
23559900 14 18113890533546375764
23569943 247 16986035579551396430
2748736 6 10015581679533376387
2838139 119 9007055734193437495
3004659 81 16370728171136758439
3089732 80 18333735723389221707
312425 54 18340777026450520611
3737641 26 18057615260689104990
4093350 32 15913052062803840272
465052 167 18413673496220762670
5104073 3 18343863312118158585
5718773 13 18335420223049150747
636775 8 18336559218464286102
7495541 125 18410009927655779740
8863177 126 18335986462108413114
960060 61 12685082696440349961
999808 66 18340209600709062510

> <PUBCHEM_SHAPE_MULTIPOLES>
467.23
16.63
2.49
1.54
3.7
0.99
-0.13
-12.16
-3.94
-1.51
-0.48
1.33
0.19
2.26

> <PUBCHEM_SHAPE_SELFOVERLAP>
1014.627

> <PUBCHEM_SHAPE_VOLUME>
256.2

> <PUBCHEM_COORDINATE_TYPE>
2
5
10

$$$$
90354061
  -OEChem-05102415123D

 43 45  0     0  0  0  0  0  0999 V2000
   -5.3148   -3.5640   -0.0388 F   0  0  0  0  0  0  0  0  0  0  0  0
    4.1674    1.6255   -0.2925 O   0  0  0  0  0  0  0  0  0  0  0  0
   -0.6643    3.1470   -0.6106 O   0  0  0  0  0  0  0  0  0  0  0  0
   -1.7451    1.6299    0.7703 N   0  0  0  0  0  0  0  0  0  0  0  0
    5.4255   -2.7584   -0.4068 N   0  0  0  0  0  0  0  0  0  0  0  0
    6.0113   -2.1403    0.6329 N   0  0  0  0  0  0  0  0  0  0  0  0
   -3.9703    1.9065   -0.2715 C   0  0  0  0  0  0  0  0  0  0  0  0
   -3.0073    2.3311    0.8345 C   0  0  0  0  0  0  0  0  0  0  0  0
   -4.3297    0.4423   -0.2089 C   0  0  0  0  0  0  0  0  0  0  0  0
    0.5513    1.2564    0.0573 C   0  0  0  0  0  0  0  0  0  0  0  0
    2.8385   -0.3408    0.0889 C   0  0  0  0  0  0  0  0  0  0  0  0
    2.9516    1.0353   -0.1099 C   0  0  0  0  0  0  0  0  0  0  0  0
   -0.6409    2.0889    0.0427 C   0  0  0  0  0  0  0  0  0  0  0  0
    1.8079    1.8338   -0.1257 C   0  0  0  0  0  0  0  0  0  0  0  0
    0.4384   -0.1197    0.2560 C   0  0  0  0  0  0  0  0  0  0  0  0
    1.5819   -0.9182    0.2716 C   0  0  0  0  0  0  0  0  0  0  0  0
    4.0046   -1.1823    0.1105 C   0  0  0  0  0  0  0  0  0  0  0  0
   -5.4331    0.0265    0.5363 C   0  0  0  0  0  0  0  0  0  0  0  0
   -3.5589   -0.4953   -0.8964 C   0  0  0  0  0  0  0  0  0  0  0  0
    4.2216   -2.2230   -0.7592 C   0  0  0  0  0  0  0  0  0  0  0  0
    5.1387   -1.1784    0.9446 C   0  0  0  0  0  0  0  0  0  0  0  0
   -5.7658   -1.3270    0.5940 C   0  0  0  0  0  0  0  0  0  0  0  0
   -3.8914   -1.8488   -0.8385 C   0  0  0  0  0  0  0  0  0  0  0  0
   -4.9949   -2.2647   -0.0933 C   0  0  0  0  0  0  0  0  0  0  0  0
    4.1775    3.0377   -0.4877 C   0  0  0  0  0  0  0  0  0  0  0  0
   -4.8856    2.5083   -0.2073 H   0  0  0  0  0  0  0  0  0  0  0  0
   -3.5355    2.1290   -1.2548 H   0  0  0  0  0  0  0  0  0  0  0  0
   -2.8191    3.4079    0.7648 H   0  0  0  0  0  0  0  0  0  0  0  0
   -3.4368    2.1280    1.8218 H   0  0  0  0  0  0  0  0  0  0  0  0
   -1.6708    0.7867    1.3293 H   0  0  0  0  0  0  0  0  0  0  0  0
    1.8370    2.9085   -0.2690 H   0  0  0  0  0  0  0  0  0  0  0  0
    1.4709   -1.9891    0.4264 H   0  0  0  0  0  0  0  0  0  0  0  0
   -0.5209   -0.6145    0.3742 H   0  0  0  0  0  0  0  0  0  0  0  0
   -6.0402    0.7472    1.0776 H   0  0  0  0  0  0  0  0  0  0  0  0
   -2.6986   -0.1852   -1.4835 H   0  0  0  0  0  0  0  0  0  0  0  0
    3.6464   -2.6264   -1.5812 H   0  0  0  0  0  0  0  0  0  0  0  0
    5.3691   -0.5170    1.7681 H   0  0  0  0  0  0  0  0  0  0  0  0
   -6.6246   -1.6512    1.1742 H   0  0  0  0  0  0  0  0  0  0  0  0
   -3.2917   -2.5789   -1.3740 H   0  0  0  0  0  0  0  0  0  0  0  0
    5.9051   -3.5426   -0.8311 H   0  0  0  0  0  0  0  0  0  0  0  0
    3.8060    3.5717    0.3936 H   0  0  0  0  0  0  0  0  0  0  0  0
    3.6535    3.3243   -1.4060 H   0  0  0  0  0  0  0  0  0  0  0  0
    5.2235    3.3354   -0.6172 H   0  0  0  0  0  0  0  0  0  0  0  0
  1 24  1  0  0  0  0
  2 12  1  0  0  0  0
  2 25  1  0  0  0  0
  3 13  2  0  0  0  0
  4  8  1  0  0  0  0
  4 13  1  0  0  0  0
  4 30  1  0  0  0  0
  5  6  1  0  0  0  0
  5 20  1  0  0  0  0
  5 40  1  0  0  0  0
  6 21  2  0  0  0  0
  7  8  1  0  0  0  0
  7  9  1  0  0  0  0
  7 26  1  0  0  0  0
  7 27  1  0  0  0  0
  8 28  1  0  0  0  0
  8 29  1  0  0  0  0
  9 18  2  0  0  0  0
  9 19  1  0  0  0  0
 10 13  1  0  0  0  0
 10 14  2  0  0  0  0
 10 15  1  0  0  0  0
 11 12  2  0  0  0  0
 11 16  1  0  0  0  0
 11 17  1  0  0  0  0
 12 14  1  0  0  0  0
 14 31  1  0  0  0  0
 15 16  2  0  0  0  0
 15 33  1  0  0  0  0
 16 32  1  0  0  0  0
 17 20  2  0  0  0  0
 17 21  1  0  0  0  0
 18 22  1  0  0  0  0
 18 34  1  0  0  0  0
 19 23  2  0  0  0  0
 19 35  1  0  0  0  0
 20 36  1  0  0  0  0
 21 37  1  0  0  0  0
 22 24  2  0  0  0  0
 22 38  1  0  0  0  0
 23 24  1  0  0  0  0
 23 39  1  0  0  0  0
 25 41  1  0  0  0  0
 25 42  1  0  0  0  0
 25 43  1  0  0  0  0
M  END
> <PUBCHEM_COMPOUND_CID>
90354061

> <PUBCHEM_CONFORMER_RMSD>
0.8

> <PUBCHEM_CONFORMER_DIVERSEORDER>
8
34
11
17
18
12
20
19
13
33
28
16
7
14
40
6
36
35
38
39
32
27
3
22
26
30
5
15
25
10
1
4
23
24
2
9
37
29
31
21

> <PUBCHEM_MMFF94_PARTIAL_CHARGES>
36
1 -0.19
10 0.09
11 0.05
12 0.08
13 0.54
14 -0.15
15 -0.15
16 -0.15
17 -0.05
18 -0.15
19 -0.15
2 -0.36
20 -0.3
21 0.14
22 -0.15
23 -0.15
24 0.19
25 0.28
3 -0.57
30 0.37
31 0.15
32 0.15
33 0.15
34 0.15
35 0.15
36 0.15
37 0.15
38 0.15
39 0.15
4 -0.73
40 0.27
5 0.3
6 -0.71
7 0.14
8 0.3
9 -0.14

> <PUBCHEM_EFFECTIVE_ROTOR_COUNT>
7

> <PUBCHEM_PHARMACOPHORE_FEATURES>
8
1 2 acceptor
1 3 acceptor
1 4 donor
1 5 donor
1 6 acceptor
5 5 6 17 20 21 rings
6 10 11 12 14 15 16 rings
6 9 18 19 22 23 24 rings

> <PUBCHEM_HEAVY_ATOM_COUNT>
25

> <PUBCHEM_ATOM_DEF_STEREO_COUNT>
0

> <PUBCHEM_ATOM_UDEF_STEREO_COUNT>
0

> <PUBCHEM_BOND_DEF_STEREO_COUNT>
0

> <PUBCHEM_BOND_UDEF_STEREO_COUNT>
0

> <PUBCHEM_ISOTOPIC_ATOM_COUNT>
0

> <PUBCHEM_COMPONENT_COUNT>
1

> <PUBCHEM_CACTVS_TAUTO_COUNT>
7

> <PUBCHEM_CONFORMER_ID>
0562B18D00000008

> <PUBCHEM_MMFF94_ENERGY>
66.377

> <PUBCHEM_FEATURE_SELFOVERLAP>
40.597

> <PUBCHEM_SHAPE_FINGERPRINT>
11135609 12 18270688571421919995
11315621 136 18335422374442072446
11756154 67 17981895134239286878
11963148 33 18192986239369681370
12107183 9 18197225750206016473
12166972 35 17676493851650099255
12422481 6 17489867094632690110
12760667 363 18343295960534947151
13167823 11 18410573963835156145
14211702 104 18407761451835720994
14251751 18 18343299241172673042
14341114 176 18408326614140216127
15196674 1 18410292523471339373
16110190 28 18342462539073644115
17492 89 18411699906686338527
17780758 139 17988925531555298105
17844677 252 18410016524377412647
19319366 153 17548696739429259725
20028762 73 18412543180771600058
21267235 1 18410017602567080875
21403212 168 18128828452653326481
221490 88 18411418410219044964
22393880 68 17967805008080770549
22950370 63 18411421743398334517
23379529 103 18341619169988451703
23559900 14 18341601573544447769
249057 3 18265331699348507877
3004659 81 18259701185842504715
329604 57 18411138069129342911
338550 245 18412545392732050670
46194498 28 17241604112532834957
5104073 3 18201720643438695625
559249 180 18337952265093716249
6431902 208 18341606023346902591
7970288 3 18339639044648348771

> <PUBCHEM_SHAPE_MULTIPOLES>
480.53
15.29
3.87
0.85
1.9
0.02
-0.01
-11.59
-0.86
-0.46
0.42
0.07
-0.05
-0.78

> <PUBCHEM_SHAPE_SELFOVERLAP>
1042.677

> <PUBCHEM_SHAPE_VOLUME>
264.1

> <PUBCHEM_COORDINATE_TYPE>
2
5
10

$$$$
90354175
  -OEChem-05102415123D

 44 46  0     0  0  0  0  0  0999 V2000
   -3.4246   -2.8042   -0.7177 F   0  0  0  0  0  0  0  0  0  0  0  0
    3.9810    2.0154   -0.5885 O   0  0  0  0  0  0  0  0  0  0  0  0
   -5.8683    1.7370    1.1693 O   0  0  0  0  0  0  0  0  0  0  0  0
   -1.0540    1.7660   -1.0976 O   0  0  0  0  0  0  0  0  0  0  0  0
   -1.3980   -0.4835   -1.5429 N   0  0  0  0  0  0  0  0  0  0  0  0
    6.4447   -1.1053    1.6480 N   0  0  0  0  0  0  0  0  0  0  0  0
    6.9896   -0.8691    0.4423 N   0  0  0  0  0  0  0  0  0  0  0  0
    3.3815   -0.2301    0.0248 C   0  0  0  0  0  0  0  0  0  0  0  0
    0.7520    0.3160   -0.7305 C   0  0  0  0  0  0  0  0  0  0  0  0
   -2.7685   -0.3592   -1.9849 C   0  0  0  0  0  0  0  0  0  0  0  0
    3.0446    1.0314   -0.4663 C   0  0  0  0  0  0  0  0  0  0  0  0
   -3.7380   -0.4544   -0.8425 C   0  0  0  0  0  0  0  0  0  0  0  0
    1.7298    1.3044   -0.8439 C   0  0  0  0  0  0  0  0  0  0  0  0
    4.7304   -0.5323    0.4214 C   0  0  0  0  0  0  0  0  0  0  0  0
    2.4037   -1.2185    0.1379 C   0  0  0  0  0  0  0  0  0  0  0  0
    1.0889   -0.9454   -0.2395 C   0  0  0  0  0  0  0  0  0  0  0  0
   -0.6192    0.6010   -1.1224 C   0  0  0  0  0  0  0  0  0  0  0  0
   -4.3600    0.6979   -0.3617 C   0  0  0  0  0  0  0  0  0  0  0  0
   -4.0173   -1.6916   -0.2621 C   0  0  0  0  0  0  0  0  0  0  0  0
   -5.2613    0.6129    0.6996 C   0  0  0  0  0  0  0  0  0  0  0  0
    5.0943   -0.9178    1.6887 C   0  0  0  0  0  0  0  0  0  0  0  0
    5.9376   -0.5195   -0.3027 C   0  0  0  0  0  0  0  0  0  0  0  0
   -4.9185   -1.7767    0.7993 C   0  0  0  0  0  0  0  0  0  0  0  0
   -5.5403   -0.6244    1.2803 C   0  0  0  0  0  0  0  0  0  0  0  0
    4.1679    2.8729    0.5349 C   0  0  0  0  0  0  0  0  0  0  0  0
   -6.7781    1.5772    2.2568 C   0  0  0  0  0  0  0  0  0  0  0  0
   -2.9604   -1.1599   -2.7083 H   0  0  0  0  0  0  0  0  0  0  0  0
   -2.8861    0.5898   -2.5209 H   0  0  0  0  0  0  0  0  0  0  0  0
    1.4811    2.2901   -1.2301 H   0  0  0  0  0  0  0  0  0  0  0  0
    2.6441   -2.2078    0.5207 H   0  0  0  0  0  0  0  0  0  0  0  0
    0.3540   -1.7335   -0.1049 H   0  0  0  0  0  0  0  0  0  0  0  0
   -0.9919   -1.4112   -1.5997 H   0  0  0  0  0  0  0  0  0  0  0  0
   -4.1471    1.6664   -0.8076 H   0  0  0  0  0  0  0  0  0  0  0  0
    4.5329   -1.0723    2.5998 H   0  0  0  0  0  0  0  0  0  0  0  0
    6.0988   -0.2710   -1.3423 H   0  0  0  0  0  0  0  0  0  0  0  0
   -5.1348   -2.7408    1.2503 H   0  0  0  0  0  0  0  0  0  0  0  0
   -6.2289   -0.7625    2.1068 H   0  0  0  0  0  0  0  0  0  0  0  0
    7.0554   -1.3921    2.4027 H   0  0  0  0  0  0  0  0  0  0  0  0
    4.9783    3.5692    0.3024 H   0  0  0  0  0  0  0  0  0  0  0  0
    4.4448    2.3010    1.4258 H   0  0  0  0  0  0  0  0  0  0  0  0
    3.2578    3.4494    0.7291 H   0  0  0  0  0  0  0  0  0  0  0  0
   -7.1672    2.5711    2.5012 H   0  0  0  0  0  0  0  0  0  0  0  0
   -7.6367    0.9581    1.9756 H   0  0  0  0  0  0  0  0  0  0  0  0
   -6.2720    1.2030    3.1532 H   0  0  0  0  0  0  0  0  0  0  0  0
  1 19  1  0  0  0  0
  2 11  1  0  0  0  0
  2 25  1  0  0  0  0
  3 20  1  0  0  0  0
  3 26  1  0  0  0  0
  4 17  2  0  0  0  0
  5 10  1  0  0  0  0
  5 17  1  0  0  0  0
  5 32  1  0  0  0  0
  6  7  1  0  0  0  0
  6 21  1  0  0  0  0
  6 38  1  0  0  0  0
  7 22  2  0  0  0  0
  8 11  2  0  0  0  0
  8 14  1  0  0  0  0
  8 15  1  0  0  0  0
  9 13  2  0  0  0  0
  9 16  1  0  0  0  0
  9 17  1  0  0  0  0
 10 12  1  0  0  0  0
 10 27  1  0  0  0  0
 10 28  1  0  0  0  0
 11 13  1  0  0  0  0
 12 18  1  0  0  0  0
 12 19  2  0  0  0  0
 13 29  1  0  0  0  0
 14 21  2  0  0  0  0
 14 22  1  0  0  0  0
 15 16  2  0  0  0  0
 15 30  1  0  0  0  0
 16 31  1  0  0  0  0
 18 20  2  0  0  0  0
 18 33  1  0  0  0  0
 19 23  1  0  0  0  0
 20 24  1  0  0  0  0
 21 34  1  0  0  0  0
 22 35  1  0  0  0  0
 23 24  2  0  0  0  0
 23 36  1  0  0  0  0
 24 37  1  0  0  0  0
 25 39  1  0  0  0  0
 25 40  1  0  0  0  0
 25 41  1  0  0  0  0
 26 42  1  0  0  0  0
 26 43  1  0  0  0  0
 26 44  1  0  0  0  0
M  END
> <PUBCHEM_COMPOUND_CID>
90354175

> <PUBCHEM_CONFORMER_RMSD>
0.8

> <PUBCHEM_CONFORMER_DIVERSEORDER>
2
69
119
82
94
56
34
28
74
128
115
36
98
11
91
103
125
23
104
130
86
42
67
96
93
5
97
108
30
26
90
18
105
52
46
116
127
72
111
50
76
121
38
124
16
55
110
88
79
100
43
95
123
57
71
63
24
99
117
54
73
17
65
89
114
48
106
68
122
64
44
92
61
83
14
101
31
126
53
84
32
80
118
33
77
60
87
113
47
9
66
45
109
112
107
13
59
3
8
39
120
1
129
58
35
21
75
12
78
27
4
49
51
25
62
85
41
6
102
70
40
37
7
81
10
22
29
15
19
20

> <PUBCHEM_MMFF94_PARTIAL_CHARGES>
36
1 -0.19
10 0.44
11 0.08
12 -0.14
13 -0.15
14 -0.05
15 -0.15
16 -0.15
17 0.54
18 -0.15
19 0.19
2 -0.36
20 0.08
21 -0.3
22 0.14
23 -0.15
24 -0.15
25 0.28
26 0.28
29 0.15
3 -0.36
30 0.15
31 0.15
32 0.37
33 0.15
34 0.15
35 0.15
36 0.15
37 0.15
38 0.27
4 -0.57
5 -0.73
6 0.3
7 -0.71
8 0.05
9 0.09

> <PUBCHEM_EFFECTIVE_ROTOR_COUNT>
7

> <PUBCHEM_PHARMACOPHORE_FEATURES>
9
1 2 acceptor
1 3 acceptor
1 4 acceptor
1 5 donor
1 6 donor
1 7 acceptor
5 6 7 14 21 22 rings
6 12 18 19 20 23 24 rings
6 8 9 11 13 15 16 rings

> <PUBCHEM_HEAVY_ATOM_COUNT>
26

> <PUBCHEM_ATOM_DEF_STEREO_COUNT>
0

> <PUBCHEM_ATOM_UDEF_STEREO_COUNT>
0

> <PUBCHEM_BOND_DEF_STEREO_COUNT>
0

> <PUBCHEM_BOND_UDEF_STEREO_COUNT>
0

> <PUBCHEM_ISOTOPIC_ATOM_COUNT>
0

> <PUBCHEM_COMPONENT_COUNT>
1

> <PUBCHEM_CACTVS_TAUTO_COUNT>
7

> <PUBCHEM_CONFORMER_ID>
0562B1FF00000002

> <PUBCHEM_MMFF94_ENERGY>
81.1813

> <PUBCHEM_FEATURE_SELFOVERLAP>
45.673

> <PUBCHEM_SHAPE_FINGERPRINT>
10554248 39 12967131601774422696
10693767 8 11386630881814006288
11036077 4 18408887348186236571
11089746 13 16343693331381609381
12107183 9 18411704253493818625
12166972 35 16298391249547616454
12403259 118 17846778542191566973
12422481 6 18273495663294162262
12596602 18 18341056310793365505
12616971 3 18272365403852861724
13103583 49 18408608071784050847
13668630 136 14057007100352604235
13782708 43 15864337014322986914
13941219 33 18187082806857862899
14251764 30 15574726806833720401
14849402 71 18337110193880087012
14950920 106 18336265734272835385
15142383 8 16773795866867764098
15238133 3 17489870449081158456
15348495 7 17988073504169263010
15352257 5 16805326582638368170
15461852 350 16630237082946327453
15510800 12 15575293098535410387
16110190 28 18410578400810543189
17349148 13 13912316863332051157
17780758 139 18408884036433667795
17844677 252 18040711472092238148
18643901 69 12757158978962222977
18927931 339 15936403451619481751
20028762 73 18338225068363450350
20281389 69 16128654154351460411
21033648 29 16630259047588277301
21150785 3 11602828994932075562
21267235 1 18187362087823605958
21307412 95 12036314831003518657
21315763 76 12967125025625513858
21403212 168 18187931622067198865
21585481 104 11167398141617268945
2303208 19 17240477009750026428
23081809 10 18130503136587854380
23522609 53 17969811663946304884
2838139 119 12607404390408668115
312425 54 18260550056222044041
3178227 256 18187083936871800026
350125 39 18407757050032306044
3663271 9 18338801224855081369
4093350 32 17632300129762644500
445580 182 18273209794534083315
465052 167 18113614569956834254
5104073 3 18338231673510461416
7495541 125 17749381569078514422
8863177 126 17749671895555885522
999808 66 16226055474646358011

> <PUBCHEM_SHAPE_MULTIPOLES>
495.24
18.55
2.23
1.64
0.59
0.61
0.32
-0.8
11.04
-0.36
0.29
-1.52
0.14
-2.13

> <PUBCHEM_SHAPE_SELFOVERLAP>
1076.911

> <PUBCHEM_SHAPE_VOLUME>
272

> <PUBCHEM_COORDINATE_TYPE>
2
5
10

$$$$
118668480
  -OEChem-05102415123D

 47 49  0     1  0  0  0  0  0999 V2000
    4.8363   -0.9204    1.3895 O   0  0  0  0  0  0  0  0  0  0  0  0
   -2.6153    1.8754    0.4787 O   0  0  0  0  0  0  0  0  0  0  0  0
    0.9168   -2.8481    0.0941 O   0  0  0  0  0  0  0  0  0  0  0  0
    1.5589   -0.7332   -0.6072 N   0  0  0  0  0  0  0  0  0  0  0  0
   -6.8690    0.4387   -0.3282 N   0  0  0  0  0  0  0  0  0  0  0  0
   -6.7753    0.9117    0.9262 N   0  0  0  0  0  0  0  0  0  0  0  0
    2.9626   -1.0323   -0.7787 C   0  0  2  0  0  0  0  0  0  0  0  0
    3.8229    0.1777   -0.4846 C   0  0  0  0  0  0  0  0  0  0  0  0
    3.2238   -1.6108   -2.1679 C   0  0  0  0  0  0  0  0  0  0  0  0
    4.7176    0.1732    0.5855 C   0  0  0  0  0  0  0  0  0  0  0  0
   -0.7650   -1.2233   -0.0772 C   0  0  0  0  0  0  0  0  0  0  0  0
    0.6146   -1.6723   -0.1765 C   0  0  0  0  0  0  0  0  0  0  0  0
    3.7121    1.3068   -1.2963 C   0  0  0  0  0  0  0  0  0  0  0  0
   -3.4121   -0.3621    0.1094 C   0  0  0  0  0  0  0  0  0  0  0  0
   -2.3691    0.5537    0.2492 C   0  0  0  0  0  0  0  0  0  0  0  0
   -1.0456    0.1231    0.1559 C   0  0  0  0  0  0  0  0  0  0  0  0
   -1.8080   -2.1391   -0.2169 C   0  0  0  0  0  0  0  0  0  0  0  0
   -3.1314   -1.7085   -0.1234 C   0  0  0  0  0  0  0  0  0  0  0  0
    5.5015    1.2977    0.8441 C   0  0  0  0  0  0  0  0  0  0  0  0
   -4.7836    0.0607    0.2003 C   0  0  0  0  0  0  0  0  0  0  0  0
    4.4962    2.4312   -1.0378 C   0  0  0  0  0  0  0  0  0  0  0  0
    5.3907    2.4268    0.0324 C   0  0  0  0  0  0  0  0  0  0  0  0
   -5.7037   -0.0817   -0.8096 C   0  0  0  0  0  0  0  0  0  0  0  0
   -5.4991    0.6781    1.2438 C   0  0  0  0  0  0  0  0  0  0  0  0
    5.7753   -0.8384    2.4600 C   0  0  0  0  0  0  0  0  0  0  0  0
   -2.7519    2.7155   -0.6649 C   0  0  0  0  0  0  0  0  0  0  0  0
    3.2013   -1.8324   -0.0687 H   0  0  0  0  0  0  0  0  0  0  0  0
    1.2446    0.1831   -0.9092 H   0  0  0  0  0  0  0  0  0  0  0  0
    2.9191   -0.9226   -2.9642 H   0  0  0  0  0  0  0  0  0  0  0  0
    2.6593   -2.5385   -2.3146 H   0  0  0  0  0  0  0  0  0  0  0  0
    4.2865   -1.8381   -2.3068 H   0  0  0  0  0  0  0  0  0  0  0  0
    3.0184    1.3340   -2.1322 H   0  0  0  0  0  0  0  0  0  0  0  0
   -0.2582    0.8577    0.3013 H   0  0  0  0  0  0  0  0  0  0  0  0
   -1.6107   -3.1917   -0.4028 H   0  0  0  0  0  0  0  0  0  0  0  0
   -3.9289   -2.4401   -0.2322 H   0  0  0  0  0  0  0  0  0  0  0  0
    6.2167    1.3674    1.6563 H   0  0  0  0  0  0  0  0  0  0  0  0
    4.4093    3.3107   -1.6690 H   0  0  0  0  0  0  0  0  0  0  0  0
    6.0003    3.3032    0.2329 H   0  0  0  0  0  0  0  0  0  0  0  0
   -5.6424   -0.4941   -1.8073 H   0  0  0  0  0  0  0  0  0  0  0  0
   -5.1477    0.9686    2.2240 H   0  0  0  0  0  0  0  0  0  0  0  0
   -7.7624    0.5036   -0.8000 H   0  0  0  0  0  0  0  0  0  0  0  0
    5.7390   -1.7940    2.9935 H   0  0  0  0  0  0  0  0  0  0  0  0
    5.4986   -0.0619    3.1813 H   0  0  0  0  0  0  0  0  0  0  0  0
    6.7997   -0.7201    2.0907 H   0  0  0  0  0  0  0  0  0  0  0  0
   -2.9933    3.7249   -0.3207 H   0  0  0  0  0  0  0  0  0  0  0  0
   -3.5594    2.3670   -1.3160 H   0  0  0  0  0  0  0  0  0  0  0  0
   -1.8114    2.7532   -1.2238 H   0  0  0  0  0  0  0  0  0  0  0  0
  1 10  1  0  0  0  0
  1 25  1  0  0  0  0
  2 15  1  0  0  0  0
  2 26  1  0  0  0  0
  3 12  2  0  0  0  0
  4  7  1  0  0  0  0
  4 12  1  0  0  0  0
  4 28  1  0  0  0  0
  5  6  1  0  0  0  0
  5 23  1  0  0  0  0
  5 41  1  0  0  0  0
  6 24  2  0  0  0  0
  7  8  1  0  0  0  0
  7  9  1  0  0  0  0
  7 27  1  0  0  0  0
  8 10  1  0  0  0  0
  8 13  2  0  0  0  0
  9 29  1  0  0  0  0
  9 30  1  0  0  0  0
  9 31  1  0  0  0  0
 10 19  2  0  0  0  0
 11 12  1  0  0  0  0
 11 16  2  0  0  0  0
 11 17  1  0  0  0  0
 13 21  1  0  0  0  0
 13 32  1  0  0  0  0
 14 15  2  0  0  0  0
 14 18  1  0  0  0  0
 14 20  1  0  0  0  0
 15 16  1  0  0  0  0
 16 33  1  0  0  0  0
 17 18  2  0  0  0  0
 17 34  1  0  0  0  0
 18 35  1  0  0  0  0
 19 22  1  0  0  0  0
 19 36  1  0  0  0  0
 20 23  2  0  0  0  0
 20 24  1  0  0  0  0
 21 22  2  0  0  0  0
 21 37  1  0  0  0  0
 22 38  1  0  0  0  0
 23 39  1  0  0  0  0
 24 40  1  0  0  0  0
 25 42  1  0  0  0  0
 25 43  1  0  0  0  0
 25 44  1  0  0  0  0
 26 45  1  0  0  0  0
 26 46  1  0  0  0  0
 26 47  1  0  0  0  0
M  END
> <PUBCHEM_COMPOUND_CID>
118668480

> <PUBCHEM_CONFORMER_RMSD>
0.8

> <PUBCHEM_CONFORMER_DIVERSEORDER>
1
17
54
83
77
6
80
37
53
78
87
68
29
16
32
21
73
20
81
76
59
46
67
86
66
44
23
85
71
30
90
19
47
24
34
39
58
36
42
79
40
25
13
27
57
56
7
92
55
65
69
82
14
64
38
9
52
62
48
70
51
41
72
35
63
18
31
75
74
61
22
60
43
11
89
8
33
49
84
4
88
28
15
45
26
10
50
3
12
91
5
2

> <PUBCHEM_MMFF94_PARTIAL_CHARGES>
36
1 -0.36
10 0.08
11 0.09
12 0.54
13 -0.15
14 0.05
15 0.08
16 -0.15
17 -0.15
18 -0.15
19 -0.15
2 -0.36
20 -0.05
21 -0.15
22 -0.15
23 -0.3
24 0.14
25 0.28
26 0.28
28 0.37
3 -0.57
32 0.15
33 0.15
34 0.15
35 0.15
36 0.15
37 0.15
38 0.15
39 0.15
4 -0.73
40 0.15
41 0.27
5 0.3
6 -0.71
7 0.44
8 -0.14

> <PUBCHEM_EFFECTIVE_ROTOR_COUNT>
7

> <PUBCHEM_PHARMACOPHORE_FEATURES>
9
1 1 acceptor
1 2 acceptor
1 3 acceptor
1 4 donor
1 5 donor
1 6 acceptor
5 5 6 20 23 24 rings
6 11 14 15 16 17 18 rings
6 8 10 13 19 21 22 rings

> <PUBCHEM_HEAVY_ATOM_COUNT>
26

> <PUBCHEM_ATOM_DEF_STEREO_COUNT>
1

> <PUBCHEM_ATOM_UDEF_STEREO_COUNT>
0

> <PUBCHEM_BOND_DEF_STEREO_COUNT>
0

> <PUBCHEM_BOND_UDEF_STEREO_COUNT>
0

> <PUBCHEM_ISOTOPIC_ATOM_COUNT>
0

> <PUBCHEM_COMPONENT_COUNT>
1

> <PUBCHEM_CACTVS_TAUTO_COUNT>
9

> <PUBCHEM_CONFORMER_ID>
0712BCC000000001

> <PUBCHEM_MMFF94_ENERGY>
86.9378

> <PUBCHEM_FEATURE_SELFOVERLAP>
45.673

> <PUBCHEM_SHAPE_FINGERPRINT>
10 15 18187373159679394739
10319926 262 15213010532131952791
10906281 52 18130242505583056003
12107183 9 18262506023643237874
12422481 6 17312818269261283701
12596602 18 17386005117306649104
12616971 3 18259979392296667430
13533116 47 17313381202077215386
13617811 41 18413383246705559329
13685833 64 11025794314643792310
13782708 43 13190343491435428049
14211702 104 8069158027067320737
14790565 3 18127425466683114769
15183329 4 18272092725238659593
15348495 7 16805611420632499985
20715895 44 18408886239166601133
21304303 94 12319736973438271900
21315764 268 18333725797803949884
21682296 61 8574718996793459157
21792934 111 18189614948198801265
21859007 373 17314493851825178007
22149856 69 18129965416005708851
23016692 55 10737284623989590306
23559900 14 18201731613365742982
2748736 6 18342173367294142321
3004659 81 18410298008397829452
3472631 163 18341615961863821678
34797466 226 14836402557889963811
3680242 22 18334297565203676704
4340502 62 17240770566733881467
465052 167 11314303954038176144
5104073 3 18113902709841996251
5372103 7 15122925436182772650
960060 61 10592042466739246570

> <PUBCHEM_SHAPE_MULTIPOLES>
502.52
17.09
2.63
1.45
7.97
0.43
-0.25
7.31
-4.57
-1.5
0.53
-2.3
-0.3
-0.91

> <PUBCHEM_SHAPE_SELFOVERLAP>
1086.944

> <PUBCHEM_SHAPE_VOLUME>
276.9

> <PUBCHEM_COORDINATE_TYPE>
2
5
10

$$$$
118662983
  -OEChem-05102415123D

 46 48  0     1  0  0  0  0  0999 V2000
    4.8600    1.1108   -1.8393 F   0  0  0  0  0  0  0  0  0  0  0  0
    3.1861   -1.0505    2.0423 F   0  0  0  0  0  0  0  0  0  0  0  0
   -1.4897   -2.4348   -1.2589 O   0  0  0  0  0  0  0  0  0  0  0  0
    1.0255    3.0295   -0.3903 O   0  0  0  0  0  0  0  0  0  0  0  0
    1.7393    0.9493    0.3445 N   0  0  0  0  0  0  0  0  0  0  0  0
   -6.6377   -0.4689   -0.7141 N   0  0  0  0  0  0  0  0  0  0  0  0
   -6.6956   -0.6825    0.6117 N   0  0  0  0  0  0  0  0  0  0  0  0
   -2.2191   -0.4104   -0.2096 C   0  0  0  0  0  0  0  0  0  0  0  0
    3.1470    1.2695    0.4134 C   0  0  2  0  0  0  0  0  0  0  0  0
   -3.2626    0.4993   -0.0376 C   0  0  0  0  0  0  0  0  0  0  0  0
   -2.4778   -1.8721   -0.3904 C   0  0  2  0  0  0  0  0  0  0  0  0
   -0.6202    1.3942   -0.0511 C   0  0  0  0  0  0  0  0  0  0  0  0
   -0.8979    0.0372   -0.2164 C   0  0  0  0  0  0  0  0  0  0  0  0
    4.0024    0.0588    0.1083 C   0  0  0  0  0  0  0  0  0  0  0  0
    0.7570    1.8614   -0.0581 C   0  0  0  0  0  0  0  0  0  0  0  0
   -2.9849    1.8563    0.1273 C   0  0  0  0  0  0  0  0  0  0  0  0
   -1.6638    2.3038    0.1208 C   0  0  0  0  0  0  0  0  0  0  0  0
   -4.6336    0.0638   -0.0278 C   0  0  0  0  0  0  0  0  0  0  0  0
    3.4895    1.9021    1.7609 C   0  0  0  0  0  0  0  0  0  0  0  0
   -2.4705   -2.6379    0.9345 C   0  0  0  0  0  0  0  0  0  0  0  0
    4.8222    0.0507   -1.0201 C   0  0  0  0  0  0  0  0  0  0  0  0
    3.9703   -1.0491    0.9553 C   0  0  0  0  0  0  0  0  0  0  0  0
   -5.4244   -0.0213   -1.1477 C   0  0  0  0  0  0  0  0  0  0  0  0
   -5.4685   -0.3553    1.0253 C   0  0  0  0  0  0  0  0  0  0  0  0
    5.6103   -1.0654   -1.3017 C   0  0  0  0  0  0  0  0  0  0  0  0
    4.7584   -2.1652    0.6737 C   0  0  0  0  0  0  0  0  0  0  0  0
    5.5785   -2.1731   -0.4547 C   0  0  0  0  0  0  0  0  0  0  0  0
    3.3370    2.0369   -0.3473 H   0  0  0  0  0  0  0  0  0  0  0  0
   -3.4300   -2.0453   -0.9004 H   0  0  0  0  0  0  0  0  0  0  0  0
   -0.0950   -0.6780   -0.3682 H   0  0  0  0  0  0  0  0  0  0  0  0
    1.4593    0.0432    0.7053 H   0  0  0  0  0  0  0  0  0  0  0  0
   -3.7856    2.5797    0.2637 H   0  0  0  0  0  0  0  0  0  0  0  0
   -1.4686    3.3645    0.2557 H   0  0  0  0  0  0  0  0  0  0  0  0
    3.2284    1.2549    2.6047 H   0  0  0  0  0  0  0  0  0  0  0  0
    4.5589    2.1304    1.8288 H   0  0  0  0  0  0  0  0  0  0  0  0
    2.9375    2.8388    1.8983 H   0  0  0  0  0  0  0  0  0  0  0  0
   -3.2169   -2.2537    1.6353 H   0  0  0  0  0  0  0  0  0  0  0  0
   -2.6708   -3.7008    0.7613 H   0  0  0  0  0  0  0  0  0  0  0  0
   -1.4871   -2.5796    1.4153 H   0  0  0  0  0  0  0  0  0  0  0  0
   -5.2426    0.1896   -2.1924 H   0  0  0  0  0  0  0  0  0  0  0  0
   -5.2373   -0.4367    2.0781 H   0  0  0  0  0  0  0  0  0  0  0  0
    6.2486   -1.0714   -2.1803 H   0  0  0  0  0  0  0  0  0  0  0  0
    4.7333   -3.0276    1.3331 H   0  0  0  0  0  0  0  0  0  0  0  0
   -1.6924   -3.3804   -1.3613 H   0  0  0  0  0  0  0  0  0  0  0  0
    6.1921   -3.0420   -0.6738 H   0  0  0  0  0  0  0  0  0  0  0  0
   -7.4668   -0.6502   -1.2659 H   0  0  0  0  0  0  0  0  0  0  0  0
  1 21  1  0  0  0  0
  2 22  1  0  0  0  0
  3 11  1  0  0  0  0
  3 44  1  0  0  0  0
  4 15  2  0  0  0  0
  5  9  1  0  0  0  0
  5 15  1  0  0  0  0
  5 31  1  0  0  0  0
  6  7  1  0  0  0  0
  6 23  1  0  0  0  0
  6 46  1  0  0  0  0
  7 24  2  0  0  0  0
  8 10  2  0  0  0  0
  8 11  1  0  0  0  0
  8 13  1  0  0  0  0
  9 14  1  0  0  0  0
  9 19  1  0  0  0  0
  9 28  1  0  0  0  0
 10 16  1  0  0  0  0
 10 18  1  0  0  0  0
 11 20  1  0  0  0  0
 11 29  1  0  0  0  0
 12 13  2  0  0  0  0
 12 15  1  0  0  0  0
 12 17  1  0  0  0  0
 13 30  1  0  0  0  0
 14 21  2  0  0  0  0
 14 22  1  0  0  0  0
 16 17  2  0  0  0  0
 16 32  1  0  0  0  0
 17 33  1  0  0  0  0
 18 23  2  0  0  0  0
 18 24  1  0  0  0  0
 19 34  1  0  0  0  0
 19 35  1  0  0  0  0
 19 36  1  0  0  0  0
 20 37  1  0  0  0  0
 20 38  1  0  0  0  0
 20 39  1  0  0  0  0
 21 25  1  0  0  0  0
 22 26  2  0  0  0  0
 23 40  1  0  0  0  0
 24 41  1  0  0  0  0
 25 27  2  0  0  0  0
 25 42  1  0  0  0  0
 26 27  1  0  0  0  0
 26 43  1  0  0  0  0
 27 45  1  0  0  0  0
M  END
> <PUBCHEM_COMPOUND_CID>
118662983

> <PUBCHEM_CONFORMER_RMSD>
0.8

> <PUBCHEM_CONFORMER_DIVERSEORDER>
1
37
14
83
33
9
3
24
62
71
34
38
82
80
44
41
84
55
67
47
79
12
46
39
77
74
32
75
52
56
22
48
85
70
51
43
16
5
36
23
69
29
40
49
60
31
28
10
25
66
11
26
2
59
78
42
57
76
73
15
50
45
65
4
58
20
17
54
18
81
19
63
61
35
27
72
8
21
7
30
53
64
6
13
68

> <PUBCHEM_MMFF94_PARTIAL_CHARGES>
36
1 -0.19
10 0.05
11 0.42
12 0.09
13 -0.15
14 -0.14
15 0.54
16 -0.15
17 -0.15
18 -0.05
2 -0.19
21 0.19
22 0.19
23 -0.3
24 0.14
25 -0.15
26 -0.15
27 -0.15
3 -0.68
30 0.15
31 0.37
32 0.15
33 0.15
4 -0.57
40 0.15
41 0.15
42 0.15
43 0.15
44 0.4
45 0.15
46 0.27
5 -0.73
6 0.3
7 -0.71
8 -0.14
9 0.44

> <PUBCHEM_EFFECTIVE_ROTOR_COUNT>
6

> <PUBCHEM_PHARMACOPHORE_FEATURES>
9
1 3 acceptor
1 3 donor
1 4 acceptor
1 5 donor
1 6 donor
1 7 acceptor
5 6 7 18 23 24 rings
6 14 21 22 25 26 27 rings
6 8 10 12 13 16 17 rings

> <PUBCHEM_HEAVY_ATOM_COUNT>
27

> <PUBCHEM_ATOM_DEF_STEREO_COUNT>
0

> <PUBCHEM_ATOM_UDEF_STEREO_COUNT>
2

> <PUBCHEM_BOND_DEF_STEREO_COUNT>
0

> <PUBCHEM_BOND_UDEF_STEREO_COUNT>
0

> <PUBCHEM_ISOTOPIC_ATOM_COUNT>
0

> <PUBCHEM_COMPONENT_COUNT>
1

> <PUBCHEM_CACTVS_TAUTO_COUNT>
9

> <PUBCHEM_CONFORMER_ID>
0712A74700000001

> <PUBCHEM_MMFF94_ENERGY>
65.3534

> <PUBCHEM_FEATURE_SELFOVERLAP>
45.672

> <PUBCHEM_SHAPE_FINGERPRINT>
10692045 39 17417822720741481711
117089 54 18053391998468665230
11991303 11 17608365740915542021
12166972 35 18060140959526157177
12422481 6 17418375796564642183
12553582 1 18336535067123831392
12633257 1 17775570835970921890
12760667 363 18343021073357540881
12788726 201 18411420570508519577
13150687 139 18265916795028514508
13402501 40 18201723890840218014
13533116 47 18131629014824791992
13551218 46 18342454833649191831
13685833 64 18343864403197638984
13782708 43 17561358504923209959
13862211 1 18342735222215344239
14211702 104 18198057187334620559
14617045 38 18410860957945140290
15183329 4 18344146990428753423
15348495 7 14836112286888809183
15537594 2 18334579074503241218
17349148 13 18060421317811221037
1813 80 17530959194100220996
19319366 153 17894345579873349906
20403669 9 18272091574107848414
21267235 1 18411423886170192778
21279426 13 18337379453779520805
21682296 61 18412829058400421295
21781051 124 17969521445159847603
2215653 11 18410007749896273191
23522609 53 18124910964562539881
23559900 14 18339640156469553881
23569943 247 18200314304107074687
3004659 81 18114181909155582134
3383291 50 18411696573876879723
34797466 226 16226055504510727205
404807 14 16481378399597415847
46194498 28 17312823814111944908
465052 167 18271810103462846468
5081480 168 16009304430967911303
5104073 3 18059571356441749256
54039377 194 18263648360495734986
563151 74 16629095837100146664
59755656 215 18341047424664220567
6138700 20 18411418372060114207
6823239 73 18343861135112545120
960060 61 18186804677797605036

> <PUBCHEM_SHAPE_MULTIPOLES>
514.42
15.73
2.81
1.31
4.32
0.07
-0.14
-6.73
1.69
-1.24
-0.21
-1.22
-0.15
0.22

> <PUBCHEM_SHAPE_SELFOVERLAP>
1120.229

> <PUBCHEM_SHAPE_VOLUME>
282.2

> <PUBCHEM_COORDINATE_TYPE>
2
5
10

$$$$
118663030
  -OEChem-05102415123D

 51 53  0     1  0  0  0  0  0999 V2000
    3.8883   -0.0338    2.1938 O   0  0  0  0  0  0  0  0  0  0  0  0
    2.7164    3.6246    0.3281 O   0  0  0  0  0  0  0  0  0  0  0  0
    1.3179    0.9235   -1.8756 O   0  0  0  0  0  0  0  0  0  0  0  0
   -3.7483    0.9520   -1.8093 O   0  0  0  0  0  0  0  0  0  0  0  0
    1.8397    0.9121    0.3831 N   0  0  0  0  0  0  0  0  0  0  0  0
   -6.1863   -1.4619    1.3974 N   0  0  0  0  0  0  0  0  0  0  0  0
   -6.7211   -0.3992    0.7721 N   0  0  0  0  0  0  0  0  0  0  0  0
    3.2446    1.2390    0.2296 C   0  0  2  0  0  0  0  0  0  0  0  0
    4.1006    0.0794    0.7828 C   0  0  2  0  0  0  0  0  0  0  0  0
    3.5284    2.5972    0.8821 C   0  0  0  0  0  0  0  0  0  0  0  0
    3.7755   -1.2670    0.1764 C   0  0  0  0  0  0  0  0  0  0  0  0
    0.9902    0.7820   -0.7004 C   0  0  0  0  0  0  0  0  0  0  0  0
   -0.4253    0.4706   -0.3741 C   0  0  0  0  0  0  0  0  0  0  0  0
    4.4456   -1.6960   -0.9694 C   0  0  0  0  0  0  0  0  0  0  0  0
    2.8058   -2.0802    0.7630 C   0  0  0  0  0  0  0  0  0  0  0  0
   -1.4435    0.8564   -1.2459 C   0  0  0  0  0  0  0  0  0  0  0  0
   -3.0829   -0.1176    0.2377 C   0  0  0  0  0  0  0  0  0  0  0  0
   -0.7358   -0.2093    0.8037 C   0  0  0  0  0  0  0  0  0  0  0  0
   -2.7724    0.5622   -0.9401 C   0  0  0  0  0  0  0  0  0  0  0  0
    4.1456   -2.9382   -1.5287 C   0  0  0  0  0  0  0  0  0  0  0  0
    2.5059   -3.3224    0.2037 C   0  0  0  0  0  0  0  0  0  0  0  0
   -2.0646   -0.5032    1.1097 C   0  0  0  0  0  0  0  0  0  0  0  0
    3.1756   -3.7513   -0.9423 C   0  0  0  0  0  0  0  0  0  0  0  0
   -4.4460   -0.4325    0.5716 C   0  0  0  0  0  0  0  0  0  0  0  0
    2.9553    4.8750    0.9593 C   0  0  0  0  0  0  0  0  0  0  0  0
   -4.8270   -1.5280    1.3073 C   0  0  0  0  0  0  0  0  0  0  0  0
   -5.6531    0.2258    0.2694 C   0  0  0  0  0  0  0  0  0  0  0  0
   -3.3292    1.6409   -2.9850 C   0  0  0  0  0  0  0  0  0  0  0  0
    3.4519    1.3389   -0.8433 H   0  0  0  0  0  0  0  0  0  0  0  0
    5.1638    0.3084    0.6405 H   0  0  0  0  0  0  0  0  0  0  0  0
    4.5846    2.8549    0.7379 H   0  0  0  0  0  0  0  0  0  0  0  0
    3.3342    2.5408    1.9606 H   0  0  0  0  0  0  0  0  0  0  0  0
    1.4901    0.8418    1.3326 H   0  0  0  0  0  0  0  0  0  0  0  0
    5.2014   -1.0699   -1.4360 H   0  0  0  0  0  0  0  0  0  0  0  0
    2.2620   -1.7735    1.6518 H   0  0  0  0  0  0  0  0  0  0  0  0
    4.5207   -0.6885    2.5374 H   0  0  0  0  0  0  0  0  0  0  0  0
   -1.1451    1.3878   -2.1427 H   0  0  0  0  0  0  0  0  0  0  0  0
    0.0249   -0.5512    1.4982 H   0  0  0  0  0  0  0  0  0  0  0  0
    4.6666   -3.2720   -2.4213 H   0  0  0  0  0  0  0  0  0  0  0  0
    1.7493   -3.9547    0.6590 H   0  0  0  0  0  0  0  0  0  0  0  0
   -2.2684   -1.0269    2.0403 H   0  0  0  0  0  0  0  0  0  0  0  0
    2.9415   -4.7181   -1.3782 H   0  0  0  0  0  0  0  0  0  0  0  0
    2.3134    5.6253    0.4897 H   0  0  0  0  0  0  0  0  0  0  0  0
    3.9987    5.1780    0.8294 H   0  0  0  0  0  0  0  0  0  0  0  0
    2.7073    4.8216    2.0238 H   0  0  0  0  0  0  0  0  0  0  0  0
   -4.2812   -2.3425    1.7636 H   0  0  0  0  0  0  0  0  0  0  0  0
   -5.8156    1.1406   -0.2825 H   0  0  0  0  0  0  0  0  0  0  0  0
   -6.8102   -2.1064    1.8667 H   0  0  0  0  0  0  0  0  0  0  0  0
   -4.2325    1.8719   -3.5596 H   0  0  0  0  0  0  0  0  0  0  0  0
   -2.8552    2.5992   -2.7464 H   0  0  0  0  0  0  0  0  0  0  0  0
   -2.7033    1.0089   -3.6244 H   0  0  0  0  0  0  0  0  0  0  0  0
  1  9  1  0  0  0  0
  1 36  1  0  0  0  0
  2 10  1  0  0  0  0
  2 25  1  0  0  0  0
  3 12  2  0  0  0  0
  4 19  1  0  0  0  0
  4 28  1  0  0  0  0
  5  8  1  0  0  0  0
  5 12  1  0  0  0  0
  5 33  1  0  0  0  0
  6  7  1  0  0  0  0
  6 26  1  0  0  0  0
  6 48  1  0  0  0  0
  7 27  2  0  0  0  0
  8  9  1  0  0  0  0
  8 10  1  0  0  0  0
  8 29  1  0  0  0  0
  9 11  1  0  0  0  0
  9 30  1  0  0  0  0
 10 31  1  0  0  0  0
 10 32  1  0  0  0  0
 11 14  2  0  0  0  0
 11 15  1  0  0  0  0
 12 13  1  0  0  0  0
 13 16  2  0  0  0  0
 13 18  1  0  0  0  0
 14 20  1  0  0  0  0
 14 34  1  0  0  0  0
 15 21  2  0  0  0  0
 15 35  1  0  0  0  0
 16 19  1  0  0  0  0
 16 37  1  0  0  0  0
 17 19  2  0  0  0  0
 17 22  1  0  0  0  0
 17 24  1  0  0  0  0
 18 22  2  0  0  0  0
 18 38  1  0  0  0  0
 20 23  2  0  0  0  0
 20 39  1  0  0  0  0
 21 23  1  0  0  0  0
 21 40  1  0  0  0  0
 22 41  1  0  0  0  0
 23 42  1  0  0  0  0
 24 26  2  0  0  0  0
 24 27  1  0  0  0  0
 25 43  1  0  0  0  0
 25 44  1  0  0  0  0
 25 45  1  0  0  0  0
 26 46  1  0  0  0  0
 27 47  1  0  0  0  0
 28 49  1  0  0  0  0
 28 50  1  0  0  0  0
 28 51  1  0  0  0  0
M  END
> <PUBCHEM_COMPOUND_CID>
118663030

> <PUBCHEM_CONFORMER_RMSD>
1

> <PUBCHEM_CONFORMER_DIVERSEORDER>
4
29
11
12
1
28
5
25
22
20
23
21
19
10
6
15
17
8
18
3
27
7
14
9
26
2
13
24
16

> <PUBCHEM_MMFF94_PARTIAL_CHARGES>
41
1 -0.68
10 0.28
11 -0.14
12 0.54
13 0.09
14 -0.15
15 -0.15
16 -0.15
17 0.05
18 -0.15
19 0.08
2 -0.56
20 -0.15
21 -0.15
22 -0.15
23 -0.15
24 -0.05
25 0.28
26 -0.3
27 0.14
28 0.28
3 -0.57
33 0.37
34 0.15
35 0.15
36 0.4
37 0.15
38 0.15
39 0.15
4 -0.36
40 0.15
41 0.15
42 0.15
46 0.15
47 0.15
48 0.27
5 -0.73
6 0.3
7 -0.71
8 0.3
9 0.42

> <PUBCHEM_EFFECTIVE_ROTOR_COUNT>
9

> <PUBCHEM_PHARMACOPHORE_FEATURES>
11
1 1 acceptor
1 1 donor
1 2 acceptor
1 3 acceptor
1 4 acceptor
1 5 donor
1 6 donor
1 7 acceptor
5 6 7 24 26 27 rings
6 11 14 15 20 21 23 rings
6 13 16 17 18 19 22 rings

> <PUBCHEM_HEAVY_ATOM_COUNT>
28

> <PUBCHEM_ATOM_DEF_STEREO_COUNT>
2

> <PUBCHEM_ATOM_UDEF_STEREO_COUNT>
0

> <PUBCHEM_BOND_DEF_STEREO_COUNT>
0

> <PUBCHEM_BOND_UDEF_STEREO_COUNT>
0

> <PUBCHEM_ISOTOPIC_ATOM_COUNT>
0

> <PUBCHEM_COMPONENT_COUNT>
1

> <PUBCHEM_CACTVS_TAUTO_COUNT>
9

> <PUBCHEM_CONFORMER_ID>
0712A77600000004

> <PUBCHEM_MMFF94_ENERGY>
84.6003

> <PUBCHEM_FEATURE_SELFOVERLAP>
55.826

> <PUBCHEM_SHAPE_FINGERPRINT>
10816530 23 18052823838333779258
114674 6 18334016073285052130
11595378 159 16845299293738606363
12778500 126 17632028429044803731
13150687 139 17534092871971138574
13533116 47 18342747316484677123
13583140 156 18410561886365930453
13617811 41 16588029005142053383
13785724 45 17985845734502348414
13955234 65 18342741857670875816
14866123 147 16899614914726473306
15131766 46 17700965798595109041
17818456 19 17058650651352924544
17844677 252 18342465815943910665
1813 80 16877948248006610583
1979834 28 18189900996493139129
20397935 70 18410864269554998747
20645477 70 18410857646736182922
21033650 10 16517950402588809678
21197605 99 18049166858318213323
22182313 1 17967803934586723887
23559900 14 18041009470060914887
239999 70 18335424569260259178
244849 19 18262504923503739389
3117164 225 18197509432832905553
3178227 256 18410289255618594504
4144715 1 18334866026349660537
437795 51 18340499949641490668
46194498 28 18040726874229622142
5309563 4 18197503917862879438
6823239 73 18041000613954596266
7399639 24 18116706503184433965
8272917 22 18343022237573512984

> <PUBCHEM_SHAPE_MULTIPOLES>
537.81
13.17
4.23
1.88
17.44
2.62
1.04
-4.97
-2.95
-8.43
-0.31
1.12
0.37
3.72

> <PUBCHEM_SHAPE_SELFOVERLAP>
1154.311

> <PUBCHEM_SHAPE_VOLUME>
298.3

> <PUBCHEM_COORDINATE_TYPE>
2
5
10

$$$$
85470576
  -OEChem-05102415123D

 53 55  0     0  0  0  0  0  0999 V2000
    6.7628   -0.3509   -2.6718 Cl  0  0  0  0  0  0  0  0  0  0  0  0
    3.3032   -1.4690    1.3629 S   0  0  0  0  0  0  0  0  0  0  0  0
   -2.6227    0.2511   -2.0839 O   0  0  0  0  0  0  0  0  0  0  0  0
    0.2604    2.3730    2.6194 O   0  0  0  0  0  0  0  0  0  0  0  0
    1.3302    1.2676    0.8835 N   0  0  0  0  0  0  0  0  0  0  0  0
   -6.9925   -0.0880   -0.8171 N   0  0  0  0  0  0  0  0  0  0  0  0
   -6.5576   -1.2706   -1.2847 N   0  0  0  0  0  0  0  0  0  0  0  0
    1.2588   -3.3208    0.6800 C   0  0  0  0  0  0  0  0  0  0  0  0
    2.5281   -2.6118    0.1774 C   0  0  0  0  0  0  0  0  0  0  0  0
    3.6889    1.0790    0.3040 C   0  0  0  0  0  0  0  0  0  0  0  0
    4.0422   -0.2698    0.2609 C   0  0  0  0  0  0  0  0  0  0  0  0
    0.0951   -2.3553    0.9144 C   0  0  0  0  0  0  0  0  0  0  0  0
    1.5106   -4.1722    1.9261 C   0  0  0  0  0  0  0  0  0  0  0  0
    2.6754    1.6033    1.2706 C   0  0  0  0  0  0  0  0  0  0  0  0
    4.2862    1.9849   -0.5726 C   0  0  0  0  0  0  0  0  0  0  0  0
   -1.1000    1.2343    1.0862 C   0  0  0  0  0  0  0  0  0  0  0  0
    4.9931   -0.7125   -0.6587 C   0  0  0  0  0  0  0  0  0  0  0  0
   -3.5740    0.3807    0.1198 C   0  0  0  0  0  0  0  0  0  0  0  0
    0.2177    1.6871    1.6016 C   0  0  0  0  0  0  0  0  0  0  0  0
   -2.4952    0.5222   -0.7533 C   0  0  0  0  0  0  0  0  0  0  0  0
   -1.2584    0.9490   -0.2700 C   0  0  0  0  0  0  0  0  0  0  0  0
   -2.1787    1.0929    1.9592 C   0  0  0  0  0  0  0  0  0  0  0  0
    5.2372    1.5421   -1.4921 C   0  0  0  0  0  0  0  0  0  0  0  0
   -3.4157    0.6664    1.4759 C   0  0  0  0  0  0  0  0  0  0  0  0
    5.5905    0.1934   -1.5352 C   0  0  0  0  0  0  0  0  0  0  0  0
   -4.8574   -0.0596   -0.3570 C   0  0  0  0  0  0  0  0  0  0  0  0
   -6.0133    0.6750   -0.2518 C   0  0  0  0  0  0  0  0  0  0  0  0
   -5.2526   -1.2475   -1.0007 C   0  0  0  0  0  0  0  0  0  0  0  0
   -1.4622    0.4263   -2.8932 C   0  0  0  0  0  0  0  0  0  0  0  0
    0.9475   -4.0065   -0.1198 H   0  0  0  0  0  0  0  0  0  0  0  0
    3.2782   -3.3605   -0.1011 H   0  0  0  0  0  0  0  0  0  0  0  0
    2.2735   -2.0602   -0.7354 H   0  0  0  0  0  0  0  0  0  0  0  0
   -0.1008   -1.7693    0.0118 H   0  0  0  0  0  0  0  0  0  0  0  0
   -0.8199   -2.9066    1.1568 H   0  0  0  0  0  0  0  0  0  0  0  0
    0.2949   -1.6661    1.7404 H   0  0  0  0  0  0  0  0  0  0  0  0
    1.7278   -3.5598    2.8069 H   0  0  0  0  0  0  0  0  0  0  0  0
    2.3504   -4.8568    1.7672 H   0  0  0  0  0  0  0  0  0  0  0  0
    0.6280   -4.7784    2.1583 H   0  0  0  0  0  0  0  0  0  0  0  0
    2.8578    1.2350    2.2870 H   0  0  0  0  0  0  0  0  0  0  0  0
    2.7310    2.6966    1.3476 H   0  0  0  0  0  0  0  0  0  0  0  0
    1.2193    0.6223    0.1082 H   0  0  0  0  0  0  0  0  0  0  0  0
    4.0214    3.0389   -0.5553 H   0  0  0  0  0  0  0  0  0  0  0  0
    5.2796   -1.7616   -0.6975 H   0  0  0  0  0  0  0  0  0  0  0  0
   -0.4129    1.1118   -0.9257 H   0  0  0  0  0  0  0  0  0  0  0  0
   -2.0737    1.3043    3.0201 H   0  0  0  0  0  0  0  0  0  0  0  0
   -4.2416    0.5573    2.1753 H   0  0  0  0  0  0  0  0  0  0  0  0
    5.6938    2.2592   -2.1695 H   0  0  0  0  0  0  0  0  0  0  0  0
   -6.2297    1.6503    0.1619 H   0  0  0  0  0  0  0  0  0  0  0  0
   -4.6474   -2.1000   -1.2759 H   0  0  0  0  0  0  0  0  0  0  0  0
   -7.9747    0.1357   -0.9173 H   0  0  0  0  0  0  0  0  0  0  0  0
   -1.7423    0.1538   -3.9163 H   0  0  0  0  0  0  0  0  0  0  0  0
   -0.6542   -0.2525   -2.5987 H   0  0  0  0  0  0  0  0  0  0  0  0
   -1.1439    1.4740   -2.9244 H   0  0  0  0  0  0  0  0  0  0  0  0
  1 25  1  0  0  0  0
  2  9  1  0  0  0  0
  2 11  1  0  0  0  0
  3 20  1  0  0  0  0
  3 29  1  0  0  0  0
  4 19  2  0  0  0  0
  5 14  1  0  0  0  0
  5 19  1  0  0  0  0
  5 41  1  0  0  0  0
  6  7  1  0  0  0  0
  6 27  1  0  0  0  0
  6 50  1  0  0  0  0
  7 28  2  0  0  0  0
  8  9  1  0  0  0  0
  8 12  1  0  0  0  0
  8 13  1  0  0  0  0
  8 30  1  0  0  0  0
  9 31  1  0  0  0  0
  9 32  1  0  0  0  0
 10 11  2  0  0  0  0
 10 14  1  0  0  0  0
 10 15  1  0  0  0  0
 11 17  1  0  0  0  0
 12 33  1  0  0  0  0
 12 34  1  0  0  0  0
 12 35  1  0  0  0  0
 13 36  1  0  0  0  0
 13 37  1  0  0  0  0
 13 38  1  0  0  0  0
 14 39  1  0  0  0  0
 14 40  1  0  0  0  0
 15 23  2  0  0  0  0
 15 42  1  0  0  0  0
 16 19  1  0  0  0  0
 16 21  2  0  0  0  0
 16 22  1  0  0  0  0
 17 25  2  0  0  0  0
 17 43  1  0  0  0  0
 18 20  2  0  0  0  0
 18 24  1  0  0  0  0
 18 26  1  0  0  0  0
 20 21  1  0  0  0  0
 21 44  1  0  0  0  0
 22 24  2  0  0  0  0
 22 45  1  0  0  0  0
 23 25  1  0  0  0  0
 23 47  1  0  0  0  0
 24 46  1  0  0  0  0
 26 27  2  0  0  0  0
 26 28  1  0  0  0  0
 27 48  1  0  0  0  0
 28 49  1  0  0  0  0
 29 51  1  0  0  0  0
 29 52  1  0  0  0  0
 29 53  1  0  0  0  0
M  END
> <PUBCHEM_COMPOUND_CID>
85470576

> <PUBCHEM_CONFORMER_RMSD>
1

> <PUBCHEM_CONFORMER_DIVERSEORDER>
4
82
21
63
26
57
18
39
42
101
91
81
94
17
22
66
32
61
84
43
27
47
46
95
19
92
37
11
85
87
100
35
58
98
23
97
62
9
80
103
6
76
7
96
31
93
20
72
88
15
67
36
40
44
1
3
53
74
69
48
70
30
79
34
13
59
51
12
78
77
5
50
8
2
29
90
55
54
52
49
83
41
38
28
14
102
56
73
25
64
16
10
89
65
75
45
86
71
99
60
33
68
24

> <PUBCHEM_MMFF94_PARTIAL_CHARGES>
36
1 -0.18
10 -0.14
11 0.1
14 0.44
15 -0.15
16 0.09
17 -0.15
18 0.05
19 0.54
2 -0.33
20 0.08
21 -0.15
22 -0.15
23 -0.15
24 -0.15
25 0.18
26 -0.05
27 -0.3
28 0.14
29 0.28
3 -0.36
4 -0.57
41 0.37
42 0.15
43 0.15
44 0.15
45 0.15
46 0.15
47 0.15
48 0.15
49 0.15
5 -0.73
50 0.27
6 0.3
7 -0.71
9 0.23

> <PUBCHEM_EFFECTIVE_ROTOR_COUNT>
9

> <PUBCHEM_PHARMACOPHORE_FEATURES>
9
1 3 acceptor
1 4 acceptor
1 5 donor
1 6 donor
1 7 acceptor
3 8 12 13 hydrophobe
5 6 7 26 27 28 rings
6 10 11 15 17 23 25 rings
6 16 18 20 21 22 24 rings

> <PUBCHEM_HEAVY_ATOM_COUNT>
29

> <PUBCHEM_ATOM_DEF_STEREO_COUNT>
0

> <PUBCHEM_ATOM_UDEF_STEREO_COUNT>
0

> <PUBCHEM_BOND_DEF_STEREO_COUNT>
0

> <PUBCHEM_BOND_UDEF_STEREO_COUNT>
0

> <PUBCHEM_ISOTOPIC_ATOM_COUNT>
0

> <PUBCHEM_COMPONENT_COUNT>
1

> <PUBCHEM_CACTVS_TAUTO_COUNT>
9

> <PUBCHEM_CONFORMER_ID>
05182D7000000004

> <PUBCHEM_MMFF94_ENERGY>
77.4689

> <PUBCHEM_FEATURE_SELFOVERLAP>
45.671

> <PUBCHEM_SHAPE_FINGERPRINT>
11069576 57 18264766558840355474
11135609 187 18337388348066174569
11545043 162 14979680948802666793
11578080 2 18044370535885237589
11646440 116 12103571844950700852
11991303 11 17605299422392659050
12166972 35 18043517318872447802
12788726 201 17846500279876624929
13150687 139 18114754811017668516
1361 2 18040997392412788956
13911987 19 18041860470934389972
14114211 68 18260557705675563510
14840074 17 17675923218290634823
14931854 50 18341339911699889630
14955137 171 16845288384658609537
15001296 14 17559655408418762527
15183329 4 18272930489101770409
17138139 8 18200304545545206682
17492 54 18260836998876862186
17909252 39 17274548616422600558
17980427 23 12540986247375378850
19319366 153 18410000044636059190
20775438 99 17415538064396256022
208703 8 17917149369502606134
21304253 335 12540690410138793211
21304303 94 18413110567826670990
21344244 181 17988651826011551678
235170 7 17603588495661189992
23559900 14 16988273292045702017
3004659 81 18202003235465644132
3472631 163 15140968378337773852
44802255 64 16735270160895126670
484989 97 18265062499245826794
7970288 3 17417818318299341964
8509985 295 10592042487813299554

> <PUBCHEM_SHAPE_MULTIPOLES>
575.84
15.44
3.13
2.46
7.68
4.46
-0.39
-1.89
-11.27
-3.17
1.53
-0.52
-0.92
-1.38

> <PUBCHEM_SHAPE_SELFOVERLAP>
1204.078

> <PUBCHEM_SHAPE_VOLUME>
330.3

> <PUBCHEM_COORDINATE_TYPE>
2
5
10

$$$$
118662938
  -OEChem-05102415123D

 47 49  0     1  0  0  0  0  0999 V2000
    3.3869    2.7180   -2.3134 O   0  0  0  0  0  0  0  0  0  0  0  0
   -2.1641   -1.7415   -0.5678 O   0  0  0  0  0  0  0  0  0  0  0  0
    0.9880    2.8280    1.4395 O   0  0  0  0  0  0  0  0  0  0  0  0
    1.7829    1.3646   -0.1735 N   0  0  0  0  0  0  0  0  0  0  0  0
   -6.5252   -0.4113   -0.7307 N   0  0  0  0  0  0  0  0  0  0  0  0
   -6.3828   -1.4076    0.1599 N   0  0  0  0  0  0  0  0  0  0  0  0
    3.1692    1.7776   -0.1042 C   0  0  1  0  0  0  0  0  0  0  0  0
    3.9361    0.9455    0.9353 C   0  0  0  0  0  0  0  0  0  0  0  0
    3.8174    1.6452   -1.4834 C   0  0  0  0  0  0  0  0  0  0  0  0
    3.9934   -0.5241    0.5918 C   0  0  0  0  0  0  0  0  0  0  0  0
    0.8003    1.9356    0.6169 C   0  0  0  0  0  0  0  0  0  0  0  0
   -0.5677    1.3825    0.4454 C   0  0  0  0  0  0  0  0  0  0  0  0
    2.9938   -1.3855    1.0440 C   0  0  0  0  0  0  0  0  0  0  0  0
    5.0461   -1.0200   -0.1775 C   0  0  0  0  0  0  0  0  0  0  0  0
   -3.1374    0.3436    0.1270 C   0  0  0  0  0  0  0  0  0  0  0  0
   -0.7398    0.0669    0.0148 C   0  0  0  0  0  0  0  0  0  0  0  0
   -2.0246   -0.4526   -0.1444 C   0  0  0  0  0  0  0  0  0  0  0  0
   -1.6805    2.1788    0.7167 C   0  0  0  0  0  0  0  0  0  0  0  0
   -2.9654    1.6594    0.5573 C   0  0  0  0  0  0  0  0  0  0  0  0
   -4.4707   -0.1724   -0.0289 C   0  0  0  0  0  0  0  0  0  0  0  0
    3.0467   -2.7429    0.7267 C   0  0  0  0  0  0  0  0  0  0  0  0
    5.0990   -2.3774   -0.4948 C   0  0  0  0  0  0  0  0  0  0  0  0
    4.0992   -3.2387   -0.0429 C   0  0  0  0  0  0  0  0  0  0  0  0
   -5.4088    0.3577   -0.8808 C   0  0  0  0  0  0  0  0  0  0  0  0
   -5.1257   -1.2566    0.5854 C   0  0  0  0  0  0  0  0  0  0  0  0
   -0.9662   -2.4728   -0.8184 C   0  0  0  0  0  0  0  0  0  0  0  0
    3.1926    2.8297    0.2065 H   0  0  0  0  0  0  0  0  0  0  0  0
    3.4735    1.0638    1.9242 H   0  0  0  0  0  0  0  0  0  0  0  0
    4.9578    1.3331    1.0420 H   0  0  0  0  0  0  0  0  0  0  0  0
    3.5566    0.7071   -1.9844 H   0  0  0  0  0  0  0  0  0  0  0  0
    4.9068    1.7259   -1.4113 H   0  0  0  0  0  0  0  0  0  0  0  0
    1.5511    0.6475   -0.8520 H   0  0  0  0  0  0  0  0  0  0  0  0
    2.1703   -1.0142    1.6479 H   0  0  0  0  0  0  0  0  0  0  0  0
    5.8383   -0.3647   -0.5289 H   0  0  0  0  0  0  0  0  0  0  0  0
    0.1426   -0.5380   -0.1435 H   0  0  0  0  0  0  0  0  0  0  0  0
   -1.5665    3.2069    1.0499 H   0  0  0  0  0  0  0  0  0  0  0  0
   -3.8187    2.2966    0.7781 H   0  0  0  0  0  0  0  0  0  0  0  0
    2.2684   -3.4135    1.0789 H   0  0  0  0  0  0  0  0  0  0  0  0
    5.9197   -2.7640   -1.0919 H   0  0  0  0  0  0  0  0  0  0  0  0
    3.8252    2.6068   -3.1743 H   0  0  0  0  0  0  0  0  0  0  0  0
    4.1405   -4.2956   -0.2897 H   0  0  0  0  0  0  0  0  0  0  0  0
   -5.3897    1.1922   -1.5681 H   0  0  0  0  0  0  0  0  0  0  0  0
   -4.7433   -1.9448    1.3261 H   0  0  0  0  0  0  0  0  0  0  0  0
   -7.4154   -0.3133   -1.2027 H   0  0  0  0  0  0  0  0  0  0  0  0
   -0.3813   -2.6175    0.0964 H   0  0  0  0  0  0  0  0  0  0  0  0
   -0.3793   -2.0288   -1.6299 H   0  0  0  0  0  0  0  0  0  0  0  0
   -1.2659   -3.4698   -1.1586 H   0  0  0  0  0  0  0  0  0  0  0  0
  1  9  1  0  0  0  0
  1 40  1  0  0  0  0
  2 17  1  0  0  0  0
  2 26  1  0  0  0  0
  3 11  2  0  0  0  0
  4  7  1  0  0  0  0
  4 11  1  0  0  0  0
  4 32  1  0  0  0  0
  5  6  1  0  0  0  0
  5 24  1  0  0  0  0
  5 44  1  0  0  0  0
  6 25  2  0  0  0  0
  7  8  1  0  0  0  0
  7  9  1  0  0  0  0
  7 27  1  0  0  0  0
  8 10  1  0  0  0  0
  8 28  1  0  0  0  0
  8 29  1  0  0  0  0
  9 30  1  0  0  0  0
  9 31  1  0  0  0  0
 10 13  2  0  0  0  0
 10 14  1  0  0  0  0
 11 12  1  0  0  0  0
 12 16  2  0  0  0  0
 12 18  1  0  0  0  0
 13 21  1  0  0  0  0
 13 33  1  0  0  0  0
 14 22  2  0  0  0  0
 14 34  1  0  0  0  0
 15 17  2  0  0  0  0
 15 19  1  0  0  0  0
 15 20  1  0  0  0  0
 16 17  1  0  0  0  0
 16 35  1  0  0  0  0
 18 19  2  0  0  0  0
 18 36  1  0  0  0  0
 19 37  1  0  0  0  0
 20 24  2  0  0  0  0
 20 25  1  0  0  0  0
 21 23  2  0  0  0  0
 21 38  1  0  0  0  0
 22 23  1  0  0  0  0
 22 39  1  0  0  0  0
 23 41  1  0  0  0  0
 24 42  1  0  0  0  0
 25 43  1  0  0  0  0
 26 45  1  0  0  0  0
 26 46  1  0  0  0  0
 26 47  1  0  0  0  0
M  END
> <PUBCHEM_COMPOUND_CID>
118662938

> <PUBCHEM_CONFORMER_RMSD>
0.8

> <PUBCHEM_CONFORMER_DIVERSEORDER>
3
82
9
29
80
47
63
7
83
91
90
45
42
76
36
10
15
78
39
25
8
32
46
2
56
93
26
79
28
88
19
84
64
23
31
43
51
58
5
92
30
89
35
67
48
24
72
85
41
44
57
77
22
20
94
40
52
69
37
4
68
65
6
59
49
54
71
27
11
50
33
81
21
75
66
70
60
17
13
34
14
12
1
53
61
87
38
18
74
16
55
73
62
86

> <PUBCHEM_MMFF94_PARTIAL_CHARGES>
39
1 -0.68
10 -0.14
11 0.54
12 0.09
13 -0.15
14 -0.15
15 0.05
16 -0.15
17 0.08
18 -0.15
19 -0.15
2 -0.36
20 -0.05
21 -0.15
22 -0.15
23 -0.15
24 -0.3
25 0.14
26 0.28
3 -0.57
32 0.37
33 0.15
34 0.15
35 0.15
36 0.15
37 0.15
38 0.15
39 0.15
4 -0.73
40 0.4
41 0.15
42 0.15
43 0.15
44 0.27
5 0.3
6 -0.71
7 0.3
8 0.14
9 0.28

> <PUBCHEM_EFFECTIVE_ROTOR_COUNT>
8

> <PUBCHEM_PHARMACOPHORE_FEATURES>
10
1 1 acceptor
1 1 donor
1 2 acceptor
1 3 acceptor
1 4 donor
1 5 donor
1 6 acceptor
5 5 6 20 24 25 rings
6 10 13 14 21 22 23 rings
6 12 15 16 17 18 19 rings

> <PUBCHEM_HEAVY_ATOM_COUNT>
26

> <PUBCHEM_ATOM_DEF_STEREO_COUNT>
1

> <PUBCHEM_ATOM_UDEF_STEREO_COUNT>
0

> <PUBCHEM_BOND_DEF_STEREO_COUNT>
0

> <PUBCHEM_BOND_UDEF_STEREO_COUNT>
0

> <PUBCHEM_ISOTOPIC_ATOM_COUNT>
0

> <PUBCHEM_COMPONENT_COUNT>
1

> <PUBCHEM_CACTVS_TAUTO_COUNT>
18

> <PUBCHEM_CONFORMER_ID>
0712A71A00000003

> <PUBCHEM_MMFF94_ENERGY>
72.9547

> <PUBCHEM_FEATURE_SELFOVERLAP>
50.749

> <PUBCHEM_SHAPE_FINGERPRINT>
11756154 67 18195811752557245854
11796584 16 17967524701588125851
12166972 35 18260833644259679094
12422481 6 17131550536069917231
12788726 201 17917724503903777681
13150687 139 18117577321844128644
13533116 47 18343299283911251856
13551218 46 18272368668244381495
13862211 1 18130503124267071263
14251740 57 18272932679139218418
14863182 85 18412259567512183440
14931854 50 18262808367639179734
15183329 4 18187640272417667581
15537594 2 18271811288488834615
15927050 60 17840298144805500070
17349148 13 17632857525368128085
17492 89 18268991977836133946
17818456 19 18054233124589276144
1813 80 17968094162891477724
19319366 153 18337109089851270390
20645477 70 18186800292451444336
21267235 1 18341898463443425194
21279426 13 18337664214485067717
21682296 61 18272654494060224175
23522609 53 18126035804266419481
23559900 14 18334570252919834417
25147074 1 18270134421988746913
3004659 81 18333729113502540200
338550 245 18409447003213777358
34797466 226 16878225376703212213
3680242 22 18272098175541257883
46194498 28 17749106708035273212
463206 1 18341888653674999410
465052 167 18272934950976256663
5104073 3 18060420179513032593

> <PUBCHEM_SHAPE_MULTIPOLES>
502.52
13.86
3.5
1.19
12.41
0.41
-0.37
7.11
-1.94
-3.92
-0.15
-0.9
-0.68
-1.15

> <PUBCHEM_SHAPE_SELFOVERLAP>
1083.493

> <PUBCHEM_SHAPE_VOLUME>
276.5

> <PUBCHEM_COORDINATE_TYPE>
2
5
10

$$$$
118662908
  -OEChem-05102415123D

 40 42  0     0  0  0  0  0  0999 V2000
    3.5739   -2.3247    1.0392 F   0  0  0  0  0  0  0  0  0  0  0  0
    4.5220    2.1493   -0.2354 F   0  0  0  0  0  0  0  0  0  0  0  0
   -2.6038   -1.9506   -0.0320 O   0  0  0  0  0  0  0  0  0  0  0  0
    1.4917    2.3080    0.1310 O   0  0  0  0  0  0  0  0  0  0  0  0
    1.7423    0.2755    1.2186 N   0  0  0  0  0  0  0  0  0  0  0  0
   -6.6765    0.1044   -0.0372 N   0  0  0  0  0  0  0  0  0  0  0  0
   -6.5052   -0.5765   -1.1832 N   0  0  0  0  0  0  0  0  0  0  0  0
   -3.1138    0.3971   -0.1102 C   0  0  0  0  0  0  0  0  0  0  0  0
   -0.4114    0.9498    0.3084 C   0  0  0  0  0  0  0  0  0  0  0  0
   -2.2017   -0.6490    0.0313 C   0  0  0  0  0  0  0  0  0  0  0  0
    3.1446    0.4262    1.5348 C   0  0  0  0  0  0  0  0  0  0  0  0
   -0.8505   -0.3725    0.2405 C   0  0  0  0  0  0  0  0  0  0  0  0
   -4.5114    0.1345   -0.3249 C   0  0  0  0  0  0  0  0  0  0  0  0
   -2.6746    1.7193   -0.0426 C   0  0  0  0  0  0  0  0  0  0  0  0
   -1.3235    1.9957    0.1669 C   0  0  0  0  0  0  0  0  0  0  0  0
    4.0271   -0.0758    0.4288 C   0  0  0  0  0  0  0  0  0  0  0  0
    0.9968    1.2383    0.5283 C   0  0  0  0  0  0  0  0  0  0  0  0
    4.1961   -1.4474    0.2395 C   0  0  0  0  0  0  0  0  0  0  0  0
    4.6785    0.8294   -0.4090 C   0  0  0  0  0  0  0  0  0  0  0  0
   -5.5133    0.5518    0.5171 C   0  0  0  0  0  0  0  0  0  0  0  0
   -5.1806   -0.5548   -1.3537 C   0  0  0  0  0  0  0  0  0  0  0  0
    5.0165   -1.9140   -0.7877 C   0  0  0  0  0  0  0  0  0  0  0  0
    5.4990    0.3629   -1.4363 C   0  0  0  0  0  0  0  0  0  0  0  0
    5.6677   -1.0088   -1.6257 C   0  0  0  0  0  0  0  0  0  0  0  0
   -2.9898   -2.5682    1.1935 C   0  0  0  0  0  0  0  0  0  0  0  0
    3.3407   -0.1364    2.4548 H   0  0  0  0  0  0  0  0  0  0  0  0
    3.3489    1.4794    1.7585 H   0  0  0  0  0  0  0  0  0  0  0  0
   -0.1639   -1.2115    0.3135 H   0  0  0  0  0  0  0  0  0  0  0  0
   -3.3678    2.5500   -0.1535 H   0  0  0  0  0  0  0  0  0  0  0  0
   -1.0024    3.0328    0.2204 H   0  0  0  0  0  0  0  0  0  0  0  0
    1.2908   -0.5603    1.5742 H   0  0  0  0  0  0  0  0  0  0  0  0
   -5.5107    1.1123    1.4419 H   0  0  0  0  0  0  0  0  0  0  0  0
   -4.7622   -1.0433   -2.2226 H   0  0  0  0  0  0  0  0  0  0  0  0
    5.1476   -2.9819   -0.9349 H   0  0  0  0  0  0  0  0  0  0  0  0
    6.0059    1.0678   -2.0886 H   0  0  0  0  0  0  0  0  0  0  0  0
   -7.6188    0.2270    0.3119 H   0  0  0  0  0  0  0  0  0  0  0  0
    6.3063   -1.3720   -2.4256 H   0  0  0  0  0  0  0  0  0  0  0  0
   -3.8098   -2.0216    1.6693 H   0  0  0  0  0  0  0  0  0  0  0  0
   -2.1354   -2.6275    1.8752 H   0  0  0  0  0  0  0  0  0  0  0  0
   -3.3303   -3.5834    0.9724 H   0  0  0  0  0  0  0  0  0  0  0  0
  1 18  1  0  0  0  0
  2 19  1  0  0  0  0
  3 10  1  0  0  0  0
  3 25  1  0  0  0  0
  4 17  2  0  0  0  0
  5 11  1  0  0  0  0
  5 17  1  0  0  0  0
  5 31  1  0  0  0  0
  6  7  1  0  0  0  0
  6 20  1  0  0  0  0
  6 36  1  0  0  0  0
  7 21  2  0  0  0  0
  8 10  2  0  0  0  0
  8 13  1  0  0  0  0
  8 14  1  0  0  0  0
  9 12  2  0  0  0  0
  9 15  1  0  0  0  0
  9 17  1  0  0  0  0
 10 12  1  0  0  0  0
 11 16  1  0  0  0  0
 11 26  1  0  0  0  0
 11 27  1  0  0  0  0
 12 28  1  0  0  0  0
 13 20  2  0  0  0  0
 13 21  1  0  0  0  0
 14 15  2  0  0  0  0
 14 29  1  0  0  0  0
 15 30  1  0  0  0  0
 16 18  2  0  0  0  0
 16 19  1  0  0  0  0
 18 22  1  0  0  0  0
 19 23  2  0  0  0  0
 20 32  1  0  0  0  0
 21 33  1  0  0  0  0
 22 24  2  0  0  0  0
 22 34  1  0  0  0  0
 23 24  1  0  0  0  0
 23 35  1  0  0  0  0
 24 37  1  0  0  0  0
 25 38  1  0  0  0  0
 25 39  1  0  0  0  0
 25 40  1  0  0  0  0
M  END
> <PUBCHEM_COMPOUND_CID>
118662908

> <PUBCHEM_CONFORMER_RMSD>
0.8

> <PUBCHEM_CONFORMER_DIVERSEORDER>
1
17
15
42
12
24
28
40
18
31
8
16
41
30
20
32
37
33
11
25
23
35
21
10
36
26
4
9
34
38
29
27
3
13
19
6
2
7
22
39
14
5

> <PUBCHEM_MMFF94_PARTIAL_CHARGES>
35
1 -0.19
10 0.08
11 0.44
12 -0.15
13 -0.05
14 -0.15
15 -0.15
16 -0.14
17 0.54
18 0.19
19 0.19
2 -0.19
20 -0.3
21 0.14
22 -0.15
23 -0.15
24 -0.15
25 0.28
28 0.15
29 0.15
3 -0.36
30 0.15
31 0.37
32 0.15
33 0.15
34 0.15
35 0.15
36 0.27
37 0.15
4 -0.57
5 -0.73
6 0.3
7 -0.71
8 0.05
9 0.09

> <PUBCHEM_EFFECTIVE_ROTOR_COUNT>
6

> <PUBCHEM_PHARMACOPHORE_FEATURES>
8
1 3 acceptor
1 4 acceptor
1 5 donor
1 6 donor
1 7 acceptor
5 6 7 13 20 21 rings
6 16 18 19 22 23 24 rings
6 8 9 10 12 14 15 rings

> <PUBCHEM_HEAVY_ATOM_COUNT>
25

> <PUBCHEM_ATOM_DEF_STEREO_COUNT>
0

> <PUBCHEM_ATOM_UDEF_STEREO_COUNT>
0

> <PUBCHEM_BOND_DEF_STEREO_COUNT>
0

> <PUBCHEM_BOND_UDEF_STEREO_COUNT>
0

> <PUBCHEM_ISOTOPIC_ATOM_COUNT>
0

> <PUBCHEM_COMPONENT_COUNT>
1

> <PUBCHEM_CACTVS_TAUTO_COUNT>
9

> <PUBCHEM_CONFORMER_ID>
0712A6FC00000001

> <PUBCHEM_MMFF94_ENERGY>
66.9238

> <PUBCHEM_FEATURE_SELFOVERLAP>
40.597

> <PUBCHEM_SHAPE_FINGERPRINT>
11524674 6 15339115750131323997
12166972 35 17275103963914311985
12516196 113 17561080306911555192
12616971 3 15647320979430479706
12788726 201 18272370811274943801
12925494 130 9582149802397649295
13150687 139 18339939212060775636
13533116 47 17989484151559614952
13617811 41 18114175337391759701
13668630 136 16989131950280798588
13685833 64 17418373571824394478
13782708 43 16056303034402167527
13914758 101 15697728026040335843
14347332 77 18341890736644460757
14617045 38 18411422791038350618
14790565 3 18263645052927338001
15183329 4 18411699876853442189
15575132 122 17385719145963357869
17349148 13 16128377107596619837
19319366 153 17676479523692740410
21150785 3 16588305016830413239
21641784 216 17240761731517038909
221357 26 18412262818175140008
2215653 11 18342454850644399375
22849339 104 18114470058148240731
23016692 55 18202286883531932116
23522609 53 17986139411561106737
23559900 14 18337669840185681576
23569943 247 17987520308393318423
23576562 1 17677891413614712527
239999 70 18273498992516061372
3004659 81 18408886209734644178
3472631 163 14562828672190303678
34797466 226 15864363414906673727
404807 14 16266610784928055487
46194498 28 17821730559193904900
465052 167 17060339617672878564
59755656 215 18271521997257136319
86090 222 16128112065623695070
960060 61 18412545418675544206

> <PUBCHEM_SHAPE_MULTIPOLES>
473.26
16.29
2.26
1.25
4.08
0.38
-0.1
3.97
-6.08
-0.95
0.38
-0.77
0.35
0.21

> <PUBCHEM_SHAPE_SELFOVERLAP>
1036.419

> <PUBCHEM_SHAPE_VOLUME>
257

> <PUBCHEM_COORDINATE_TYPE>
2
5
10

$$$$
118663064
  -OEChem-05102415123D

 44 46  0     1  0  0  0  0  0999 V2000
    3.7321    0.1664   -2.5223 O   0  0  0  0  0  0  0  0  0  0  0  0
   -2.2790   -1.2284   -1.4431 O   0  0  0  0  0  0  0  0  0  0  0  0
    1.6030    2.2049    1.3834 O   0  0  0  0  0  0  0  0  0  0  0  0
    1.8807    1.5506   -0.8238 N   0  0  0  0  0  0  0  0  0  0  0  0
   -6.1809   -0.8891    0.8956 N   0  0  0  0  0  0  0  0  0  0  0  0
   -6.3959   -0.5997   -0.3991 N   0  0  0  0  0  0  0  0  0  0  0  0
    4.1534    0.7381   -1.2839 C   0  0  1  0  0  0  0  0  0  0  0  0
    3.2687    1.9366   -0.9398 C   0  0  0  0  0  0  0  0  0  0  0  0
    4.0883   -0.3301   -0.2170 C   0  0  0  0  0  0  0  0  0  0  0  0
   -0.2510    1.2507    0.3109 C   0  0  0  0  0  0  0  0  0  0  0  0
   -2.8956    0.3644    0.2482 C   0  0  0  0  0  0  0  0  0  0  0  0
    1.1278    1.7117    0.3451 C   0  0  0  0  0  0  0  0  0  0  0  0
   -1.9437   -0.2216   -0.5863 C   0  0  0  0  0  0  0  0  0  0  0  0
   -0.6214    0.2217   -0.5550 C   0  0  0  0  0  0  0  0  0  0  0  0
   -1.2029    1.8367    1.1454 C   0  0  0  0  0  0  0  0  0  0  0  0
   -2.5252    1.3937    1.1139 C   0  0  0  0  0  0  0  0  0  0  0  0
   -4.2638   -0.0783    0.2333 C   0  0  0  0  0  0  0  0  0  0  0  0
    4.9850   -0.3045    0.8511 C   0  0  0  0  0  0  0  0  0  0  0  0
    3.1316   -1.3417   -0.3005 C   0  0  0  0  0  0  0  0  0  0  0  0
    4.9249   -1.2905    1.8361 C   0  0  0  0  0  0  0  0  0  0  0  0
    3.0715   -2.3278    0.6843 C   0  0  0  0  0  0  0  0  0  0  0  0
   -4.9196   -0.5957    1.3238 C   0  0  0  0  0  0  0  0  0  0  0  0
   -5.2213   -0.1048   -0.7983 C   0  0  0  0  0  0  0  0  0  0  0  0
    3.9680   -2.3020    1.7526 C   0  0  0  0  0  0  0  0  0  0  0  0
   -1.2347   -1.7612   -2.2543 C   0  0  0  0  0  0  0  0  0  0  0  0
    5.1881    1.0734   -1.4212 H   0  0  0  0  0  0  0  0  0  0  0  0
    3.3102    2.6711   -1.7515 H   0  0  0  0  0  0  0  0  0  0  0  0
    3.6068    2.4225   -0.0188 H   0  0  0  0  0  0  0  0  0  0  0  0
    1.4353    1.2236   -1.6746 H   0  0  0  0  0  0  0  0  0  0  0  0
    0.1491   -0.2368   -1.1604 H   0  0  0  0  0  0  0  0  0  0  0  0
   -0.9352    2.6430    1.8233 H   0  0  0  0  0  0  0  0  0  0  0  0
   -3.2520    1.8682    1.7693 H   0  0  0  0  0  0  0  0  0  0  0  0
    5.7333    0.4798    0.9276 H   0  0  0  0  0  0  0  0  0  0  0  0
    2.4174   -1.3863   -1.1178 H   0  0  0  0  0  0  0  0  0  0  0  0
    4.3435   -0.5588   -2.7385 H   0  0  0  0  0  0  0  0  0  0  0  0
    5.6225   -1.2702    2.6682 H   0  0  0  0  0  0  0  0  0  0  0  0
    2.3255   -3.1145    0.6202 H   0  0  0  0  0  0  0  0  0  0  0  0
   -4.6155   -0.7815    2.3447 H   0  0  0  0  0  0  0  0  0  0  0  0
   -5.1163    0.2154   -1.8255 H   0  0  0  0  0  0  0  0  0  0  0  0
    3.9207   -3.0694    2.5198 H   0  0  0  0  0  0  0  0  0  0  0  0
   -6.9423   -1.2871    1.4311 H   0  0  0  0  0  0  0  0  0  0  0  0
   -0.8268   -1.0093   -2.9388 H   0  0  0  0  0  0  0  0  0  0  0  0
   -0.4604   -2.2479   -1.6512 H   0  0  0  0  0  0  0  0  0  0  0  0
   -1.6820   -2.5423   -2.8783 H   0  0  0  0  0  0  0  0  0  0  0  0
  1  7  1  0  0  0  0
  1 35  1  0  0  0  0
  2 13  1  0  0  0  0
  2 25  1  0  0  0  0
  3 12  2  0  0  0  0
  4  8  1  0  0  0  0
  4 12  1  0  0  0  0
  4 29  1  0  0  0  0
  5  6  1  0  0  0  0
  5 22  1  0  0  0  0
  5 41  1  0  0  0  0
  6 23  2  0  0  0  0
  7  8  1  0  0  0  0
  7  9  1  0  0  0  0
  7 26  1  0  0  0  0
  8 27  1  0  0  0  0
  8 28  1  0  0  0  0
  9 18  2  0  0  0  0
  9 19  1  0  0  0  0
 10 12  1  0  0  0  0
 10 14  2  0  0  0  0
 10 15  1  0  0  0  0
 11 13  2  0  0  0  0
 11 16  1  0  0  0  0
 11 17  1  0  0  0  0
 13 14  1  0  0  0  0
 14 30  1  0  0  0  0
 15 16  2  0  0  0  0
 15 31  1  0  0  0  0
 16 32  1  0  0  0  0
 17 22  2  0  0  0  0
 17 23  1  0  0  0  0
 18 20  1  0  0  0  0
 18 33  1  0  0  0  0
 19 21  2  0  0  0  0
 19 34  1  0  0  0  0
 20 24  2  0  0  0  0
 20 36  1  0  0  0  0
 21 24  1  0  0  0  0
 21 37  1  0  0  0  0
 22 38  1  0  0  0  0
 23 39  1  0  0  0  0
 24 40  1  0  0  0  0
 25 42  1  0  0  0  0
 25 43  1  0  0  0  0
 25 44  1  0  0  0  0
M  END
> <PUBCHEM_COMPOUND_CID>
118663064

> <PUBCHEM_CONFORMER_RMSD>
0.8

> <PUBCHEM_CONFORMER_DIVERSEORDER>
8
32
55
15
53
98
52
65
96
37
80
66
76
9
85
82
70
29
33
74
57
91
39
90
35
5
83
84
59
64
46
43
47
86
78
34
58
36
87
19
51
75
94
69
6
56
41
50
73
12
89
88
18
67
63
72
71
45
68
26
20
77
97
2
31
17
95
79
3
28
81
54
24
48
42
21
62
14
44
27
16
93
92
30
40
13
25
61
22
49
4
1
38
60
10
7
11
23

> <PUBCHEM_MMFF94_PARTIAL_CHARGES>
38
1 -0.68
10 0.09
11 0.05
12 0.54
13 0.08
14 -0.15
15 -0.15
16 -0.15
17 -0.05
18 -0.15
19 -0.15
2 -0.36
20 -0.15
21 -0.15
22 -0.3
23 0.14
24 -0.15
25 0.28
29 0.37
3 -0.57
30 0.15
31 0.15
32 0.15
33 0.15
34 0.15
35 0.4
36 0.15
37 0.15
38 0.15
39 0.15
4 -0.73
40 0.15
41 0.27
5 0.3
6 -0.71
7 0.42
8 0.3
9 -0.14

> <PUBCHEM_EFFECTIVE_ROTOR_COUNT>
7

> <PUBCHEM_PHARMACOPHORE_FEATURES>
10
1 1 acceptor
1 1 donor
1 2 acceptor
1 3 acceptor
1 4 donor
1 5 donor
1 6 acceptor
5 5 6 17 22 23 rings
6 10 11 13 14 15 16 rings
6 9 18 19 20 21 24 rings

> <PUBCHEM_HEAVY_ATOM_COUNT>
25

> <PUBCHEM_ATOM_DEF_STEREO_COUNT>
1

> <PUBCHEM_ATOM_UDEF_STEREO_COUNT>
0

> <PUBCHEM_BOND_DEF_STEREO_COUNT>
0

> <PUBCHEM_BOND_UDEF_STEREO_COUNT>
0

> <PUBCHEM_ISOTOPIC_ATOM_COUNT>
0

> <PUBCHEM_COMPONENT_COUNT>
1

> <PUBCHEM_CACTVS_TAUTO_COUNT>
9

> <PUBCHEM_CONFORMER_ID>
0712A79800000008

> <PUBCHEM_MMFF94_ENERGY>
72.664

> <PUBCHEM_FEATURE_SELFOVERLAP>
50.75

> <PUBCHEM_SHAPE_FINGERPRINT>
11796584 16 18341622541964644087
12166972 35 17603865543028207458
12236239 1 18411141307824873348
12422481 6 17984720934676924017
12553582 1 18131347501430544548
12633257 1 17703506683518095573
12788726 201 18130238098266557520
13533116 47 18259988179762533113
14251740 57 18270965618562142150
14347332 77 18333447626073911925
14910302 57 16733258023554097363
15183329 4 18409452453986543221
15537594 2 18412265064506157766
17134984 74 18187652469460104571
17349148 13 17418095429763651549
17492 89 18119805803615699194
17857418 61 18410853265848253731
1813 80 18335704918623209244
19319366 153 18408602595680175454
20028762 73 16917067802523821047
20369508 70 18343020016822499176
20567600 247 18260265295822516963
20645477 70 17457782284872590552
21033648 29 15482103865067181730
21421861 104 18201151148377088544
21859007 373 18129367229845750385
22061861 79 17385441020892319331
23559900 14 17603864533736974017
3004659 81 18271535263820828636
3411729 13 17273683463837971504
345986 75 18342736265280747288
4098825 35 17095519565755537332
439807 62 17968663834664494395
46194498 28 16370727037233854702
465052 167 18341905120821893623
5104073 3 17631170978064223779
59682541 52 17676198083428402735
7970288 3 17825664457216701210
960060 61 17312830368099831092
9841814 1 18130787888814775760

> <PUBCHEM_SHAPE_MULTIPOLES>
481.94
13.39
2.28
1.87
10.46
0.07
-0.63
5.69
2.04
-2.4
0.54
-0.95
0.37
-1.94

> <PUBCHEM_SHAPE_SELFOVERLAP>
1045.757

> <PUBCHEM_SHAPE_VOLUME>
263.7

> <PUBCHEM_COORDINATE_TYPE>
2
5
10

$$$$
118662967
  -OEChem-05102415123D

 47 49  0     1  0  0  0  0  0999 V2000
    4.4682   -1.9675    1.6593 F   0  0  0  0  0  0  0  0  0  0  0  0
   -2.5918    1.6956    0.8582 O   0  0  0  0  0  0  0  0  0  0  0  0
    4.7174    3.0104   -0.6455 O   0  0  0  0  0  0  0  0  0  0  0  0
    0.5219   -3.2199   -0.1800 O   0  0  0  0  0  0  0  0  0  0  0  0
    1.4040   -1.0908   -0.4369 N   0  0  0  0  0  0  0  0  0  0  0  0
   -6.8808    0.8695   -0.4577 N   0  0  0  0  0  0  0  0  0  0  0  0
   -6.8437    1.0987    0.8660 N   0  0  0  0  0  0  0  0  0  0  0  0
    2.7843   -1.4966   -0.5754 C   0  0  2  0  0  0  0  0  0  0  0  0
    3.7239   -0.4532   -0.0104 C   0  0  0  0  0  0  0  0  0  0  0  0
    3.1007   -1.8414   -2.0293 C   0  0  0  0  0  0  0  0  0  0  0  0
   -0.9889   -1.4270   -0.1490 C   0  0  0  0  0  0  0  0  0  0  0  0
    0.3484   -1.9900   -0.2458 C   0  0  0  0  0  0  0  0  0  0  0  0
    3.7886    0.8120   -0.5943 C   0  0  0  0  0  0  0  0  0  0  0  0
    4.5240   -0.7546    1.0917 C   0  0  0  0  0  0  0  0  0  0  0  0
   -3.5546   -0.3464    0.0329 C   0  0  0  0  0  0  0  0  0  0  0  0
   -2.4479    0.4180    0.4031 C   0  0  0  0  0  0  0  0  0  0  0  0
   -1.1651   -0.1223    0.3121 C   0  0  0  0  0  0  0  0  0  0  0  0
   -2.0956   -2.1914   -0.5191 C   0  0  0  0  0  0  0  0  0  0  0  0
    4.6537    1.7758   -0.0760 C   0  0  0  0  0  0  0  0  0  0  0  0
   -3.3783   -1.6512   -0.4279 C   0  0  0  0  0  0  0  0  0  0  0  0
   -4.8856    0.1916    0.1172 C   0  0  0  0  0  0  0  0  0  0  0  0
    5.3891    0.2093    1.6100 C   0  0  0  0  0  0  0  0  0  0  0  0
    5.4541    1.4743    1.0259 C   0  0  0  0  0  0  0  0  0  0  0  0
   -5.7327    0.3268   -0.9555 C   0  0  0  0  0  0  0  0  0  0  0  0
   -5.6225    0.6827    1.2117 C   0  0  0  0  0  0  0  0  0  0  0  0
   -2.5626    2.7360   -0.1161 C   0  0  0  0  0  0  0  0  0  0  0  0
    3.8717    3.2513   -1.7692 C   0  0  0  0  0  0  0  0  0  0  0  0
    2.9026   -2.4249   -0.0028 H   0  0  0  0  0  0  0  0  0  0  0  0
    1.1978   -0.1079   -0.5817 H   0  0  0  0  0  0  0  0  0  0  0  0
    2.9188   -0.9961   -2.7023 H   0  0  0  0  0  0  0  0  0  0  0  0
    4.1473   -2.1443   -2.1438 H   0  0  0  0  0  0  0  0  0  0  0  0
    2.4712   -2.6679   -2.3776 H   0  0  0  0  0  0  0  0  0  0  0  0
    3.1442    1.0015   -1.4457 H   0  0  0  0  0  0  0  0  0  0  0  0
   -0.3288    0.4900    0.6386 H   0  0  0  0  0  0  0  0  0  0  0  0
   -1.9794   -3.2084   -0.8845 H   0  0  0  0  0  0  0  0  0  0  0  0
   -4.2272   -2.2659   -0.7186 H   0  0  0  0  0  0  0  0  0  0  0  0
    6.0119   -0.0257    2.4680 H   0  0  0  0  0  0  0  0  0  0  0  0
    6.1300    2.2209    1.4339 H   0  0  0  0  0  0  0  0  0  0  0  0
   -5.6306    0.0952   -2.0068 H   0  0  0  0  0  0  0  0  0  0  0  0
   -5.3243    0.7560    2.2482 H   0  0  0  0  0  0  0  0  0  0  0  0
   -7.7250    1.1087   -0.9626 H   0  0  0  0  0  0  0  0  0  0  0  0
   -2.7398    3.6869    0.3938 H   0  0  0  0  0  0  0  0  0  0  0  0
   -3.3438    2.5933   -0.8689 H   0  0  0  0  0  0  0  0  0  0  0  0
   -1.5812    2.7770   -0.5994 H   0  0  0  0  0  0  0  0  0  0  0  0
    4.1273    2.6009   -2.6127 H   0  0  0  0  0  0  0  0  0  0  0  0
    2.8126    3.1845   -1.4979 H   0  0  0  0  0  0  0  0  0  0  0  0
    4.0529    4.2810   -2.0945 H   0  0  0  0  0  0  0  0  0  0  0  0
  1 14  1  0  0  0  0
  2 16  1  0  0  0  0
  2 26  1  0  0  0  0
  3 19  1  0  0  0  0
  3 27  1  0  0  0  0
  4 12  2  0  0  0  0
  5  8  1  0  0  0  0
  5 12  1  0  0  0  0
  5 29  1  0  0  0  0
  6  7  1  0  0  0  0
  6 24  1  0  0  0  0
  6 41  1  0  0  0  0
  7 25  2  0  0  0  0
  8  9  1  0  0  0  0
  8 10  1  0  0  0  0
  8 28  1  0  0  0  0
  9 13  1  0  0  0  0
  9 14  2  0  0  0  0
 10 30  1  0  0  0  0
 10 31  1  0  0  0  0
 10 32  1  0  0  0  0
 11 12  1  0  0  0  0
 11 17  2  0  0  0  0
 11 18  1  0  0  0  0
 13 19  2  0  0  0  0
 13 33  1  0  0  0  0
 14 22  1  0  0  0  0
 15 16  2  0  0  0  0
 15 20  1  0  0  0  0
 15 21  1  0  0  0  0
 16 17  1  0  0  0  0
 17 34  1  0  0  0  0
 18 20  2  0  0  0  0
 18 35  1  0  0  0  0
 19 23  1  0  0  0  0
 20 36  1  0  0  0  0
 21 24  2  0  0  0  0
 21 25  1  0  0  0  0
 22 23  2  0  0  0  0
 22 37  1  0  0  0  0
 23 38  1  0  0  0  0
 24 39  1  0  0  0  0
 25 40  1  0  0  0  0
 26 42  1  0  0  0  0
 26 43  1  0  0  0  0
 26 44  1  0  0  0  0
 27 45  1  0  0  0  0
 27 46  1  0  0  0  0
 27 47  1  0  0  0  0
M  END
> <PUBCHEM_COMPOUND_CID>
118662967

> <PUBCHEM_CONFORMER_RMSD>
0.8

> <PUBCHEM_CONFORMER_DIVERSEORDER>
1
50
89
131
120
143
24
4
92
117
111
94
78
155
31
62
157
52
129
112
18
133
150
15
135
63
73
152
25
7
132
151
64
80
59
91
97
44
139
10
114
39
5
141
125
154
136
146
45
65
48
43
41
98
85
37
93
38
102
40
130
12
142
11
147
153
16
58
148
140
22
69
137
68
27
128
123
70
21
51
124
17
60
121
122
20
61
145
19
42
6
118
13
76
23
54
105
95
115
134
119
81
79
110
90
30
82
104
84
138
107
149
103
29
57
83
49
8
144
156
53
36
35
101
33
46
74
108
26
71
28
99
116
34
66
14
100
77
72
106
87
109
86
32
3
88
75
56
96
126
127
9
67
55
2
47
113

> <PUBCHEM_MMFF94_PARTIAL_CHARGES>
36
1 -0.19
11 0.09
12 0.54
13 -0.15
14 0.19
15 0.05
16 0.08
17 -0.15
18 -0.15
19 0.08
2 -0.36
20 -0.15
21 -0.05
22 -0.15
23 -0.15
24 -0.3
25 0.14
26 0.28
27 0.28
29 0.37
3 -0.36
33 0.15
34 0.15
35 0.15
36 0.15
37 0.15
38 0.15
39 0.15
4 -0.57
40 0.15
41 0.27
5 -0.73
6 0.3
7 -0.71
8 0.44
9 -0.14

> <PUBCHEM_EFFECTIVE_ROTOR_COUNT>
7

> <PUBCHEM_PHARMACOPHORE_FEATURES>
9
1 2 acceptor
1 3 acceptor
1 4 acceptor
1 5 donor
1 6 donor
1 7 acceptor
5 6 7 21 24 25 rings
6 11 15 16 17 18 20 rings
6 9 13 14 19 22 23 rings

> <PUBCHEM_HEAVY_ATOM_COUNT>
27

> <PUBCHEM_ATOM_DEF_STEREO_COUNT>
0

> <PUBCHEM_ATOM_UDEF_STEREO_COUNT>
1

> <PUBCHEM_BOND_DEF_STEREO_COUNT>
0

> <PUBCHEM_BOND_UDEF_STEREO_COUNT>
0

> <PUBCHEM_ISOTOPIC_ATOM_COUNT>
0

> <PUBCHEM_COMPONENT_COUNT>
1

> <PUBCHEM_CACTVS_TAUTO_COUNT>
9

> <PUBCHEM_CONFORMER_ID>
0712A73700000001

> <PUBCHEM_MMFF94_ENERGY>
85.6072

> <PUBCHEM_FEATURE_SELFOVERLAP>
45.673

> <PUBCHEM_SHAPE_FINGERPRINT>
10 15 18187089477168660675
10319926 262 15285633275299389063
10906281 52 18060151925088995955
12107183 9 18336533938212701530
12166972 35 18270962324332243346
12422481 6 17531243955101109197
12596602 18 17603865645426486184
12633257 1 17677878193536582562
13533116 47 17604145922250233322
13617811 41 18342450453062898321
13782708 43 13479141215798107697
14117953 113 18410575076495677420
14211702 104 10882275062382602321
14251764 38 18408041788699124572
14790565 3 18128548068081421913
15183329 4 18272934938345030129
15238133 3 18269832172734792688
15348495 7 17530969115590134795
15840311 113 18128269887608611473
20511986 3 18267006414418003420
20715895 44 18409162190936629941
21315764 268 18261105232089701380
21859007 373 17460297881255830693
22149856 69 17987536878809137331
2215653 11 8934992660204033721
23559900 14 18201731630482217678
245318 6 17824558584573022124
2748736 6 18342171181097837745
3004659 81 18342177743923598968
345986 75 12035721028959807039
3472631 163 18412828014111543014
34797466 226 15051727625286922459
3680242 22 18409449163397451296
38570 142 17678757845973437452
397830 11 17604161423171767811
4340502 62 17603590690812037251
465052 167 11746934270207750802
474 4 18409451401318414450
5104073 3 18041277763456512002
57724786 102 18114742750269453612
6371009 1 18339913844665347033
960060 61 10375867494102666010

> <PUBCHEM_SHAPE_MULTIPOLES>
515.82
16.55
3.21
1.37
10.8
0.73
0.11
8.98
-3.05
-2.79
1.09
-1.65
0.13
-1.37

> <PUBCHEM_SHAPE_SELFOVERLAP>
1117.71

> <PUBCHEM_SHAPE_VOLUME>
284.8

> <PUBCHEM_COORDINATE_TYPE>
2
5
10

$$$$
90376380
  -OEChem-05102415123D

 42 44  0     1  0  0  0  0  0999 V2000
   -5.2003    0.8961    1.7472 F   0  0  0  0  0  0  0  0  0  0  0  0
    4.7405    1.5453   -1.0651 F   0  0  0  0  0  0  0  0  0  0  0  0
    3.6536    3.1081   -0.0270 F   0  0  0  0  0  0  0  0  0  0  0  0
   -1.1189    2.4763    0.5838 O   0  0  0  0  0  0  0  0  0  0  0  0
   -2.0284    0.5550   -0.3426 N   0  0  0  0  0  0  0  0  0  0  0  0
    5.8419   -2.3924   -0.4368 N   0  0  0  0  0  0  0  0  0  0  0  0
    6.2808   -1.7983    0.6859 N   0  0  0  0  0  0  0  0  0  0  0  0
   -3.3878    1.0380   -0.4296 C   0  0  2  0  0  0  0  0  0  0  0  0
   -4.3841   -0.0876   -0.2530 C   0  0  0  0  0  0  0  0  0  0  0  0
    0.3477    0.6958    0.1631 C   0  0  0  0  0  0  0  0  0  0  0  0
    2.8715   -0.4934    0.1597 C   0  0  0  0  0  0  0  0  0  0  0  0
    2.7548    0.8954    0.0985 C   0  0  0  0  0  0  0  0  0  0  0  0
   -3.6028    1.8092   -1.7303 C   0  0  0  0  0  0  0  0  0  0  0  0
   -0.9682    1.3150    0.1649 C   0  0  0  0  0  0  0  0  0  0  0  0
    1.4928    1.4899    0.1002 C   0  0  0  0  0  0  0  0  0  0  0  0
    0.4645   -0.6930    0.2244 C   0  0  0  0  0  0  0  0  0  0  0  0
    1.7263   -1.2874    0.2224 C   0  0  0  0  0  0  0  0  0  0  0  0
    4.1608   -1.1312    0.1585 C   0  0  0  0  0  0  0  0  0  0  0  0
   -5.2471   -0.0921    0.8430 C   0  0  0  0  0  0  0  0  0  0  0  0
   -4.4396   -1.1208   -1.1885 C   0  0  0  0  0  0  0  0  0  0  0  0
    3.9592    1.7790    0.0293 C   0  0  0  0  0  0  0  0  0  0  0  0
   -6.1654   -1.1296    1.0034 C   0  0  0  0  0  0  0  0  0  0  0  0
   -5.3582   -2.1583   -1.0283 C   0  0  0  0  0  0  0  0  0  0  0  0
    4.5778   -2.0268   -0.7959 C   0  0  0  0  0  0  0  0  0  0  0  0
    5.2495   -1.0292    1.0450 C   0  0  0  0  0  0  0  0  0  0  0  0
   -6.2210   -2.1629    0.0678 C   0  0  0  0  0  0  0  0  0  0  0  0
   -3.5223    1.7598    0.3856 H   0  0  0  0  0  0  0  0  0  0  0  0
   -1.8349   -0.3489   -0.7612 H   0  0  0  0  0  0  0  0  0  0  0  0
   -2.9316    2.6738   -1.7846 H   0  0  0  0  0  0  0  0  0  0  0  0
   -4.6321    2.1769   -1.8051 H   0  0  0  0  0  0  0  0  0  0  0  0
   -3.4006    1.1912   -2.6122 H   0  0  0  0  0  0  0  0  0  0  0  0
    1.3981    2.5716    0.0474 H   0  0  0  0  0  0  0  0  0  0  0  0
   -0.3991   -1.3464    0.3070 H   0  0  0  0  0  0  0  0  0  0  0  0
    1.7945   -2.3714    0.2820 H   0  0  0  0  0  0  0  0  0  0  0  0
   -3.7737   -1.1379   -2.0470 H   0  0  0  0  0  0  0  0  0  0  0  0
    4.5781    1.6570    0.9221 H   0  0  0  0  0  0  0  0  0  0  0  0
   -6.8370   -1.1330    1.8568 H   0  0  0  0  0  0  0  0  0  0  0  0
   -5.4011   -2.9632   -1.7562 H   0  0  0  0  0  0  0  0  0  0  0  0
    4.1062   -2.4310   -1.6810 H   0  0  0  0  0  0  0  0  0  0  0  0
    5.3387   -0.4347    1.9434 H   0  0  0  0  0  0  0  0  0  0  0  0
   -6.9360   -2.9708    0.1928 H   0  0  0  0  0  0  0  0  0  0  0  0
    6.4599   -3.0395   -0.9103 H   0  0  0  0  0  0  0  0  0  0  0  0
  1 19  1  0  0  0  0
  2 21  1  0  0  0  0
  3 21  1  0  0  0  0
  4 14  2  0  0  0  0
  5  8  1  0  0  0  0
  5 14  1  0  0  0  0
  5 28  1  0  0  0  0
  6  7  1  0  0  0  0
  6 24  1  0  0  0  0
  6 42  1  0  0  0  0
  7 25  2  0  0  0  0
  8  9  1  0  0  0  0
  8 13  1  0  0  0  0
  8 27  1  0  0  0  0
  9 19  1  0  0  0  0
  9 20  2  0  0  0  0
 10 14  1  0  0  0  0
 10 15  2  0  0  0  0
 10 16  1  0  0  0  0
 11 12  2  0  0  0  0
 11 17  1  0  0  0  0
 11 18  1  0  0  0  0
 12 15  1  0  0  0  0
 12 21  1  0  0  0  0
 13 29  1  0  0  0  0
 13 30  1  0  0  0  0
 13 31  1  0  0  0  0
 15 32  1  0  0  0  0
 16 17  2  0  0  0  0
 16 33  1  0  0  0  0
 17 34  1  0  0  0  0
 18 24  2  0  0  0  0
 18 25  1  0  0  0  0
 19 22  2  0  0  0  0
 20 23  1  0  0  0  0
 20 35  1  0  0  0  0
 21 36  1  0  0  0  0
 22 26  1  0  0  0  0
 22 37  1  0  0  0  0
 23 26  2  0  0  0  0
 23 38  1  0  0  0  0
 24 39  1  0  0  0  0
 25 40  1  0  0  0  0
 26 41  1  0  0  0  0
M  END
> <PUBCHEM_COMPOUND_CID>
90376380

> <PUBCHEM_CONFORMER_RMSD>
0.8

> <PUBCHEM_CONFORMER_DIVERSEORDER>
2
10
79
50
46
22
87
74
71
78
32
5
55
19
34
29
80
84
60
12
72
76
47
35
21
63
86
85
23
37
62
30
36
39
25
82
49
68
31
81
56
83
52
77
33
38
8
43
9
28
69
4
45
41
58
13
17
70
75
66
88
3
27
14
57
11
64
15
53
51
61
6
24
67
40
59
7
42
48
1
73
65
26
16
18
54
20
44

> <PUBCHEM_MMFF94_PARTIAL_CHARGES>
36
1 -0.19
10 0.09
11 0.05
12 -0.14
14 0.54
15 -0.15
16 -0.15
17 -0.15
18 -0.05
19 0.19
2 -0.34
20 -0.15
21 0.82
22 -0.15
23 -0.15
24 -0.3
25 0.14
26 -0.15
28 0.37
3 -0.34
32 0.15
33 0.15
34 0.15
35 0.15
37 0.15
38 0.15
39 0.15
4 -0.57
40 0.15
41 0.15
42 0.27
5 -0.73
6 0.3
7 -0.71
8 0.44
9 -0.14

> <PUBCHEM_EFFECTIVE_ROTOR_COUNT>
6

> <PUBCHEM_PHARMACOPHORE_FEATURES>
7
1 4 acceptor
1 5 donor
1 6 donor
1 7 acceptor
5 6 7 18 24 25 rings
6 10 11 12 15 16 17 rings
6 9 19 20 22 23 26 rings

> <PUBCHEM_HEAVY_ATOM_COUNT>
26

> <PUBCHEM_ATOM_DEF_STEREO_COUNT>
0

> <PUBCHEM_ATOM_UDEF_STEREO_COUNT>
1

> <PUBCHEM_BOND_DEF_STEREO_COUNT>
0

> <PUBCHEM_BOND_UDEF_STEREO_COUNT>
0

> <PUBCHEM_ISOTOPIC_ATOM_COUNT>
0

> <PUBCHEM_COMPONENT_COUNT>
1

> <PUBCHEM_CACTVS_TAUTO_COUNT>
7

> <PUBCHEM_CONFORMER_ID>
056308BC00000002

> <PUBCHEM_MMFF94_ENERGY>
59.4783

> <PUBCHEM_FEATURE_SELFOVERLAP>
35.522

> <PUBCHEM_SHAPE_FINGERPRINT>
10 15 13470682672481902631
11089746 13 11819283252165202646
12107183 9 18128549167529811521
12166972 35 17967537865462694220
12422481 6 16988843830678750254
12616971 3 18272366477515408391
13073987 5 18272933860065412065
13533116 47 18410576210514482720
13782708 43 17895188879273714178
13955234 65 18342170124857877272
14347332 77 18408602535122975877
14849402 71 18059006315409032024
15064981 113 13696402505728499843
15183329 4 18413389855942530239
15196674 1 18410853274411898821
15250474 111 17988634250915647447
15799311 1 18270135594208779079
15880784 105 18411141355311970763
16110190 28 18273497892698809887
17349148 13 18040438763053665569
17492 89 18341048523869899454
17780758 139 17918273126410236707
17844677 252 18334013874076809693
18222031 100 16515683355340270519
18927931 339 17749393638005428059
19377110 9 18060699524212370240
20028762 73 18342455937219254654
21150785 3 16805613568464476422
21267235 1 18410578370424193930
21315763 191 18059858359373165235
21709351 56 18041555845403374717
22393880 68 17968646130085963677
22950370 63 18343586269821704505
23522609 53 18194997138425324913
23559900 14 18267569248043486352
3004659 81 18260261945288875394
314194 84 18271523216901331991
34797466 226 16588027969437509933
439807 62 18334011696897519143
465052 167 18342741793494468094
5104073 3 18131068238240782897
54039377 194 18341898472213039542
7495541 125 17988637527690285600

> <PUBCHEM_SHAPE_MULTIPOLES>
492.43
17.32
2.81
1.13
4.44
0.47
0.06
-10.65
-1.11
-1.64
0.41
1.2
0.05
-0.21

> <PUBCHEM_SHAPE_SELFOVERLAP>
1076.345

> <PUBCHEM_SHAPE_VOLUME>
267.8

> <PUBCHEM_COORDINATE_TYPE>
2
5
10

$$$$
90353989
  -OEChem-05102415123D

 50 53  0     0  0  0  0  0  0999 V2000
    3.2375   -0.4742    1.8913 O   0  0  0  0  0  0  0  0  0  0  0  0
    0.0566    1.5746   -2.6395 O   0  0  0  0  0  0  0  0  0  0  0  0
   -0.3436    2.2026   -0.4430 N   0  0  0  0  0  0  0  0  0  0  0  0
    7.3201   -1.7131   -0.0719 N   0  0  0  0  0  0  0  0  0  0  0  0
    7.2493   -1.3612    1.2232 N   0  0  0  0  0  0  0  0  0  0  0  0
   -2.7138    2.1396    0.1165 C   0  0  0  0  0  0  0  0  0  0  0  0
   -1.6338    2.8025   -0.6700 C   0  0  0  0  0  0  0  0  0  0  0  0
   -4.2160    0.2776    0.4530 C   0  0  0  0  0  0  0  0  0  0  0  0
    4.1405   -0.0948   -0.3040 C   0  0  0  0  0  0  0  0  0  0  0  0
    1.7024    1.0302   -1.0604 C   0  0  0  0  0  0  0  0  0  0  0  0
   -3.2053    0.8967   -0.2825 C   0  0  0  0  0  0  0  0  0  0  0  0
    3.0949   -0.0131    0.6156 C   0  0  0  0  0  0  0  0  0  0  0  0
    1.8758    0.5494    0.2374 C   0  0  0  0  0  0  0  0  0  0  0  0
   -3.2329    2.7634    1.2509 C   0  0  0  0  0  0  0  0  0  0  0  0
   -4.7261   -1.0115    0.0393 C   0  0  0  0  0  0  0  0  0  0  0  0
    0.4043    1.6304   -1.4628 C   0  0  0  0  0  0  0  0  0  0  0  0
    3.9670    0.3861   -1.6018 C   0  0  0  0  0  0  0  0  0  0  0  0
    2.7480    0.9486   -1.9802 C   0  0  0  0  0  0  0  0  0  0  0  0
    5.4054   -0.6712    0.0651 C   0  0  0  0  0  0  0  0  0  0  0  0
   -4.7352    0.9015    1.5875 C   0  0  0  0  0  0  0  0  0  0  0  0
   -4.2436    2.1444    1.9864 C   0  0  0  0  0  0  0  0  0  0  0  0
   -3.8933   -1.9093   -0.6285 C   0  0  0  0  0  0  0  0  0  0  0  0
   -6.0505   -1.3566    0.3082 C   0  0  0  0  0  0  0  0  0  0  0  0
    6.2406   -1.3234   -0.8088 C   0  0  0  0  0  0  0  0  0  0  0  0
    6.0775   -0.7251    1.3009 C   0  0  0  0  0  0  0  0  0  0  0  0
   -4.3848   -3.1522   -1.0274 C   0  0  0  0  0  0  0  0  0  0  0  0
   -6.5421   -2.5995   -0.0907 C   0  0  0  0  0  0  0  0  0  0  0  0
   -5.7093   -3.4973   -0.7586 C   0  0  0  0  0  0  0  0  0  0  0  0
    2.1106   -0.3452    2.7548 C   0  0  0  0  0  0  0  0  0  0  0  0
   -1.8879    2.7870   -1.7363 H   0  0  0  0  0  0  0  0  0  0  0  0
   -1.5413    3.8588   -0.3917 H   0  0  0  0  0  0  0  0  0  0  0  0
   -2.8002    0.4537   -1.1889 H   0  0  0  0  0  0  0  0  0  0  0  0
    0.0353    2.2818    0.4948 H   0  0  0  0  0  0  0  0  0  0  0  0
    1.0294    0.5889    0.9108 H   0  0  0  0  0  0  0  0  0  0  0  0
   -2.8576    3.7302    1.5759 H   0  0  0  0  0  0  0  0  0  0  0  0
    4.7633    0.3539   -2.3412 H   0  0  0  0  0  0  0  0  0  0  0  0
    2.6338    1.3250   -2.9934 H   0  0  0  0  0  0  0  0  0  0  0  0
   -5.5003    0.4443    2.2089 H   0  0  0  0  0  0  0  0  0  0  0  0
   -4.6422    2.6272    2.8740 H   0  0  0  0  0  0  0  0  0  0  0  0
   -2.8471   -1.6978   -0.8318 H   0  0  0  0  0  0  0  0  0  0  0  0
   -6.7445   -0.6789    0.7977 H   0  0  0  0  0  0  0  0  0  0  0  0
    6.1773   -1.5557   -1.8630 H   0  0  0  0  0  0  0  0  0  0  0  0
    5.7833   -0.3221    2.2595 H   0  0  0  0  0  0  0  0  0  0  0  0
   -3.7349   -3.8545   -1.5413 H   0  0  0  0  0  0  0  0  0  0  0  0
   -7.5752   -2.8663    0.1124 H   0  0  0  0  0  0  0  0  0  0  0  0
    8.1366   -2.2220   -0.3868 H   0  0  0  0  0  0  0  0  0  0  0  0
   -6.0921   -4.4650   -1.0692 H   0  0  0  0  0  0  0  0  0  0  0  0
    2.4061   -0.7514    3.7280 H   0  0  0  0  0  0  0  0  0  0  0  0
    1.2633   -0.9473    2.4089 H   0  0  0  0  0  0  0  0  0  0  0  0
    1.8434    0.7040    2.9220 H   0  0  0  0  0  0  0  0  0  0  0  0
  1 12  1  0  0  0  0
  1 29  1  0  0  0  0
  2 16  2  0  0  0  0
  3  7  1  0  0  0  0
  3 16  1  0  0  0  0
  3 33  1  0  0  0  0
  4  5  1  0  0  0  0
  4 24  1  0  0  0  0
  4 46  1  0  0  0  0
  5 25  2  0  0  0  0
  6  7  1  0  0  0  0
  6 11  2  0  0  0  0
  6 14  1  0  0  0  0
  7 30  1  0  0  0  0
  7 31  1  0  0  0  0
  8 11  1  0  0  0  0
  8 15  1  0  0  0  0
  8 20  2  0  0  0  0
  9 12  2  0  0  0  0
  9 17  1  0  0  0  0
  9 19  1  0  0  0  0
 10 13  2  0  0  0  0
 10 16  1  0  0  0  0
 10 18  1  0  0  0  0
 11 32  1  0  0  0  0
 12 13  1  0  0  0  0
 13 34  1  0  0  0  0
 14 21  2  0  0  0  0
 14 35  1  0  0  0  0
 15 22  2  0  0  0  0
 15 23  1  0  0  0  0
 17 18  2  0  0  0  0
 17 36  1  0  0  0  0
 18 37  1  0  0  0  0
 19 24  2  0  0  0  0
 19 25  1  0  0  0  0
 20 21  1  0  0  0  0
 20 38  1  0  0  0  0
 21 39  1  0  0  0  0
 22 26  1  0  0  0  0
 22 40  1  0  0  0  0
 23 27  2  0  0  0  0
 23 41  1  0  0  0  0
 24 42  1  0  0  0  0
 25 43  1  0  0  0  0
 26 28  2  0  0  0  0
 26 44  1  0  0  0  0
 27 28  1  0  0  0  0
 27 45  1  0  0  0  0
 28 47  1  0  0  0  0
 29 48  1  0  0  0  0
 29 49  1  0  0  0  0
 29 50  1  0  0  0  0
M  END
> <PUBCHEM_COMPOUND_CID>
90353989

> <PUBCHEM_CONFORMER_RMSD>
0.8

> <PUBCHEM_CONFORMER_DIVERSEORDER>
31
100
82
7
29
40
71
6
74
90
17
94
34
102
91
87
50
8
28
38
105
21
104
67
5
75
16
93
2
65
55
70
61
26
97
39
86
12
95
73
88
85
66
11
51
101
68
45
99
27
23
96
13
62
98
103
44
79
58
53
59
36
54
78
24
83
77
43
41
72
33
63
84
49
22
1
76
89
30
64
20
52
35
15
48
80
56
92
18
42
25
10
47
60
19
32
69
106
3
81
57
37
9
4
46
14

> <PUBCHEM_MMFF94_PARTIAL_CHARGES>
43
1 -0.36
10 0.09
11 -0.15
12 0.08
13 -0.15
14 -0.15
16 0.54
17 -0.15
18 -0.15
19 -0.05
2 -0.57
20 -0.15
21 -0.15
22 -0.15
23 -0.15
24 -0.3
25 0.14
26 -0.15
27 -0.15
28 -0.15
29 0.28
3 -0.73
32 0.15
33 0.37
34 0.15
35 0.15
36 0.15
37 0.15
38 0.15
39 0.15
4 0.3
40 0.15
41 0.15
42 0.15
43 0.15
44 0.15
45 0.15
46 0.27
47 0.15
5 -0.71
6 -0.14
7 0.44
9 0.05

> <PUBCHEM_EFFECTIVE_ROTOR_COUNT>
7

> <PUBCHEM_PHARMACOPHORE_FEATURES>
9
1 1 acceptor
1 2 acceptor
1 3 donor
1 4 donor
1 5 acceptor
5 4 5 19 24 25 rings
6 15 22 23 26 27 28 rings
6 6 8 11 14 20 21 rings
6 9 10 12 13 17 18 rings

> <PUBCHEM_HEAVY_ATOM_COUNT>
29

> <PUBCHEM_ATOM_DEF_STEREO_COUNT>
0

> <PUBCHEM_ATOM_UDEF_STEREO_COUNT>
0

> <PUBCHEM_BOND_DEF_STEREO_COUNT>
0

> <PUBCHEM_BOND_UDEF_STEREO_COUNT>
0

> <PUBCHEM_ISOTOPIC_ATOM_COUNT>
0

> <PUBCHEM_COMPONENT_COUNT>
1

> <PUBCHEM_CACTVS_TAUTO_COUNT>
7

> <PUBCHEM_CONFORMER_ID>
0562B1450000001F

> <PUBCHEM_MMFF94_ENERGY>
92.6718

> <PUBCHEM_FEATURE_SELFOVERLAP>
45.673

> <PUBCHEM_SHAPE_FINGERPRINT>
10254770 206 18058444473726263751
10319926 262 17846791680048340485
10622 236 17460009834720928043
10939801 23 18127693940698530860
11135926 11 15647054811717537104
11227150 75 16696923713239151767
11227688 84 16806996642602312834
11545043 162 17917709089054668401
11607047 403 17909259531739020264
11828042 279 17314508330941135556
11828532 37 17843960584469791471
12166972 35 17968375779512464935
12596602 18 18410572924421564905
131258 38 17474093780247184655
13782708 43 18060700585285615382
14068700 675 18410855499136581265
14344974 204 18272370871563514734
14705955 166 16701754765594035003
14950920 106 18060135435918698121
15183329 4 17894633656367671138
15188451 53 18343582967044426277
15320294 125 18409172113023526447
15348495 7 17989486299544292896
15728490 51 18337952394063918180
17780758 139 18201439160336156433
17913733 40 15410900634603438332
19841028 212 18115870874938207115
20028762 73 18334013883094304234
208703 8 18262234529811839323
21033648 29 16128390241981443301
21315759 148 17917710163466346538
21756936 100 10375865295185172037
21814621 53 17417529087007749162
229767 44 18131069376518483951
23522609 53 18046099049531713676
23569914 152 12759636105144219568
244849 19 16414659058781113381
312425 54 17916595223662000154
392239 28 15841547509511948053
397830 11 18201428195574845928
406291 66 18336827610659428183
42767 46 18335131042273675691
484985 159 18335412449173325381
5104073 3 18060424641757576049
559249 180 18335424561165891165
5874358 3 16806706440457805754
6009941 240 17417254212646602056
66674814 147 17822292409218914699
6691757 9 18270404859411521593
7288768 16 11959739291577595957
7970288 3 18337672018114084335
96874 4 18261669354543190855

> <PUBCHEM_SHAPE_MULTIPOLES>
570.12
19.06
3.45
2.04
13.43
0.83
-0.32
17.04
-4.16
-7.23
0.52
1.54
-0.75
-2.91

> <PUBCHEM_SHAPE_SELFOVERLAP>
1259.625

> <PUBCHEM_SHAPE_VOLUME>
306.9

> <PUBCHEM_COORDINATE_TYPE>
2
5
10

$$$$
90353946
  -OEChem-05102415123D

 46 49  0     0  0  0  0  0  0999 V2000
    4.7954    1.3773   -1.8579 S   0  0  0  0  0  0  0  0  0  0  0  0
   -4.4377   -0.4281    1.9878 O   0  0  0  0  0  0  0  0  0  0  0  0
    0.4054    1.0850    1.9233 O   0  0  0  0  0  0  0  0  0  0  0  0
    0.4963    2.3456   -0.0207 N   0  0  0  0  0  0  0  0  0  0  0  0
    3.3004    1.0110    0.2191 N   0  0  0  0  0  0  0  0  0  0  0  0
   -6.6428   -1.9216   -1.7165 N   0  0  0  0  0  0  0  0  0  0  0  0
   -7.3842   -0.9963   -1.0838 N   0  0  0  0  0  0  0  0  0  0  0  0
   -3.8815   -0.1223   -0.3307 C   0  0  0  0  0  0  0  0  0  0  0  0
   -1.4083    0.9073    0.4477 C   0  0  0  0  0  0  0  0  0  0  0  0
   -3.5612   -0.0256    1.0235 C   0  0  0  0  0  0  0  0  0  0  0  0
   -2.3247    0.4892    1.4126 C   0  0  0  0  0  0  0  0  0  0  0  0
    1.7891    2.9450    0.2293 C   0  0  0  0  0  0  0  0  0  0  0  0
   -5.1508   -0.6497   -0.7537 C   0  0  0  0  0  0  0  0  0  0  0  0
   -2.9651    0.2959   -1.2957 C   0  0  0  0  0  0  0  0  0  0  0  0
   -1.7285    0.8107   -0.9065 C   0  0  0  0  0  0  0  0  0  0  0  0
   -0.0908    1.4544    0.8623 C   0  0  0  0  0  0  0  0  0  0  0  0
    2.9005    2.1890   -0.3812 C   0  0  0  0  0  0  0  0  0  0  0  0
    4.2926    0.4969   -0.4733 C   0  0  0  0  0  0  0  0  0  0  0  0
   -5.2989   -1.7587   -1.5505 C   0  0  0  0  0  0  0  0  0  0  0  0
    4.9730   -0.7340   -0.1532 C   0  0  0  0  0  0  0  0  0  0  0  0
    3.5926    2.5517   -1.5176 C   0  0  0  0  0  0  0  0  0  0  0  0
   -6.4674   -0.2221   -0.4975 C   0  0  0  0  0  0  0  0  0  0  0  0
    5.7026   -1.4034   -1.1357 C   0  0  0  0  0  0  0  0  0  0  0  0
    4.9014   -1.2549    1.1386 C   0  0  0  0  0  0  0  0  0  0  0  0
    6.3607   -2.5938   -0.8262 C   0  0  0  0  0  0  0  0  0  0  0  0
    5.5594   -2.4453    1.4482 C   0  0  0  0  0  0  0  0  0  0  0  0
   -4.0167   -0.2885    3.3426 C   0  0  0  0  0  0  0  0  0  0  0  0
    6.2891   -3.1148    0.4658 C   0  0  0  0  0  0  0  0  0  0  0  0
   -2.0247    0.5937    2.4494 H   0  0  0  0  0  0  0  0  0  0  0  0
    1.9462    3.0267    1.3109 H   0  0  0  0  0  0  0  0  0  0  0  0
    1.7469    3.9649   -0.1690 H   0  0  0  0  0  0  0  0  0  0  0  0
   -3.1934    0.2271   -2.3569 H   0  0  0  0  0  0  0  0  0  0  0  0
   -1.0329    1.0951   -1.6904 H   0  0  0  0  0  0  0  0  0  0  0  0
    0.0127    2.6405   -0.8621 H   0  0  0  0  0  0  0  0  0  0  0  0
   -4.5903   -2.4367   -2.0061 H   0  0  0  0  0  0  0  0  0  0  0  0
    3.4567    3.4200   -2.1468 H   0  0  0  0  0  0  0  0  0  0  0  0
   -6.8011    0.6212    0.0908 H   0  0  0  0  0  0  0  0  0  0  0  0
   -7.1211   -2.6396   -2.2461 H   0  0  0  0  0  0  0  0  0  0  0  0
    5.7767   -1.0678   -2.1655 H   0  0  0  0  0  0  0  0  0  0  0  0
    4.3414   -0.7501    1.9222 H   0  0  0  0  0  0  0  0  0  0  0  0
    6.9241   -3.1191   -1.5921 H   0  0  0  0  0  0  0  0  0  0  0  0
    5.5041   -2.8509    2.4542 H   0  0  0  0  0  0  0  0  0  0  0  0
   -4.8341   -0.6572    3.9714 H   0  0  0  0  0  0  0  0  0  0  0  0
   -3.8618    0.7617    3.6131 H   0  0  0  0  0  0  0  0  0  0  0  0
   -3.1445   -0.9135    3.5632 H   0  0  0  0  0  0  0  0  0  0  0  0
    6.8003   -4.0423    0.7064 H   0  0  0  0  0  0  0  0  0  0  0  0
  1 18  1  0  0  0  0
  1 21  1  0  0  0  0
  2 10  1  0  0  0  0
  2 27  1  0  0  0  0
  3 16  2  0  0  0  0
  4 12  1  0  0  0  0
  4 16  1  0  0  0  0
  4 34  1  0  0  0  0
  5 17  1  0  0  0  0
  5 18  2  0  0  0  0
  6  7  1  0  0  0  0
  6 19  1  0  0  0  0
  6 38  1  0  0  0  0
  7 22  2  0  0  0  0
  8 10  2  0  0  0  0
  8 13  1  0  0  0  0
  8 14  1  0  0  0  0
  9 11  2  0  0  0  0
  9 15  1  0  0  0  0
  9 16  1  0  0  0  0
 10 11  1  0  0  0  0
 11 29  1  0  0  0  0
 12 17  1  0  0  0  0
 12 30  1  0  0  0  0
 12 31  1  0  0  0  0
 13 19  2  0  0  0  0
 13 22  1  0  0  0  0
 14 15  2  0  0  0  0
 14 32  1  0  0  0  0
 15 33  1  0  0  0  0
 17 21  2  0  0  0  0
 18 20  1  0  0  0  0
 19 35  1  0  0  0  0
 20 23  2  0  0  0  0
 20 24  1  0  0  0  0
 21 36  1  0  0  0  0
 22 37  1  0  0  0  0
 23 25  1  0  0  0  0
 23 39  1  0  0  0  0
 24 26  2  0  0  0  0
 24 40  1  0  0  0  0
 25 28  2  0  0  0  0
 25 41  1  0  0  0  0
 26 28  1  0  0  0  0
 26 42  1  0  0  0  0
 27 43  1  0  0  0  0
 27 44  1  0  0  0  0
 27 45  1  0  0  0  0
 28 46  1  0  0  0  0
M  END
> <PUBCHEM_COMPOUND_CID>
90353946

> <PUBCHEM_CONFORMER_RMSD>
0.8

> <PUBCHEM_CONFORMER_DIVERSEORDER>
22
55
69
91
75
113
71
5
87
6
118
12
58
17
108
105
79
49
56
85
67
68
100
110
28
66
88
123
1
116
89
30
109
52
107
42
13
27
119
73
47
59
103
83
26
117
8
33
94
114
45
64
9
24
77
41
60
96
112
90
54
31
101
82
57
38
29
115
46
35
72
104
84
99
20
65
2
25
44
18
19
111
97
74
81
37
122
61
80
121
14
39
63
43
120
16
86
92
32
93
48
78
10
106
4
36
21
53
50
102
51
40
15
23
76
62
34
98
70
11
95
7
3

> <PUBCHEM_MMFF94_PARTIAL_CHARGES>
41
1 -0.08
10 0.08
11 -0.15
12 0.48
13 -0.05
14 -0.15
15 -0.15
16 0.54
17 0.05
18 0.33
19 -0.3
2 -0.36
20 0.05
21 -0.11
22 0.14
23 -0.15
24 -0.15
25 -0.15
26 -0.15
27 0.28
28 -0.15
29 0.15
3 -0.57
32 0.15
33 0.15
34 0.37
35 0.15
36 0.15
37 0.15
38 0.27
39 0.15
4 -0.73
40 0.15
41 0.15
42 0.15
46 0.15
5 -0.57
6 0.3
7 -0.71
8 0.05
9 0.09

> <PUBCHEM_EFFECTIVE_ROTOR_COUNT>
7

> <PUBCHEM_PHARMACOPHORE_FEATURES>
10
1 2 acceptor
1 3 acceptor
1 4 donor
1 5 acceptor
1 6 donor
1 7 acceptor
5 1 5 17 18 21 rings
5 6 7 13 19 22 rings
6 20 23 24 25 26 28 rings
6 8 9 10 11 14 15 rings

> <PUBCHEM_HEAVY_ATOM_COUNT>
28

> <PUBCHEM_ATOM_DEF_STEREO_COUNT>
0

> <PUBCHEM_ATOM_UDEF_STEREO_COUNT>
0

> <PUBCHEM_BOND_DEF_STEREO_COUNT>
0

> <PUBCHEM_BOND_UDEF_STEREO_COUNT>
0

> <PUBCHEM_ISOTOPIC_ATOM_COUNT>
0

> <PUBCHEM_COMPONENT_COUNT>
1

> <PUBCHEM_CACTVS_TAUTO_COUNT>
7

> <PUBCHEM_CONFORMER_ID>
0562B11A00000016

> <PUBCHEM_MMFF94_ENERGY>
75.0925

> <PUBCHEM_FEATURE_SELFOVERLAP>
50.748

> <PUBCHEM_SHAPE_FINGERPRINT>
10 15 14261626240125582370
10319926 262 15698011699417958984
10622 236 18263081012236527930
10670039 82 14635420546873772758
10693767 8 18337662100844394667
11135926 11 18190478228046289132
11146851 88 17531517686479112962
1200032 147 10447919586798996302
12166972 35 18335137575234307470
12422481 6 17559688230664424380
12633046 712 18191042277205130337
12925494 130 14547359539840495379
13533116 47 18411697725011958620
1361 4 18266735968875501087
1361 87 17604165769410042354
13782708 43 18334852840361737599
14344974 204 17833822782583334674
14347332 77 18412821378867371717
14537116 161 14851874859857345175
14931854 50 17531258201972125930
15183329 4 18272093829203367477
15188451 53 17346877845096905837
15350500 16 17895743003871339058
15475509 8 17385719176149883677
15721738 15 17023180471277265066
16992828 155 14364050850764489890
17134984 74 18260266387034321030
17857418 61 18131072666473292789
18393751 57 10663825195971923661
1979834 28 16272214089382195164
19841028 212 18342734139208982278
20028762 73 18202282472959988758
20691028 202 8718822102604130686
20775438 99 18190449653423166802
21315764 119 16588024580492054727
21344244 78 15697998569513129240
21585483 132 18127951170232532495
21641784 216 15502918763106883373
21792934 111 14692582039869374947
22061861 79 18040716991256698397
23522609 53 18125753212044466449
23559900 14 16950288424616246685
23569914 152 17609183824678599087
23569943 247 18334851681032323955
23929065 36 15338849629926148091
2748736 6 8718535091789219222
2838139 119 11963397357988193910
3004659 81 18411417315339676628
3472631 163 11963397327722988826
34797466 226 16515973686771991821
3729539 64 17967532328922977578
3886686 26 16409878244847717454
4066623 53 15647043838708722132
44062 13 18116995486175623364
46194498 28 16517399770907678284
474113 269 17775557625231671487
50009960 94 15911325850479302367
5085150 59 17275385392031445839
5104073 3 16558755649948965609
531348 171 18411417294413804069
5719381 36 17629748231493517887
5874358 3 16557598981408254479
5951187 136 13479145626966950206
59682541 52 18260540164949531437
7970288 3 18341891845178747918
96874 4 18201712946868077718

> <PUBCHEM_SHAPE_MULTIPOLES>
548.41
20.06
3.08
2.17
6.82
0.06
-1.15
-17.06
6.93
-6.47
0.39
2.63
-0.51
-2.34

> <PUBCHEM_SHAPE_SELFOVERLAP>
1195.817

> <PUBCHEM_SHAPE_VOLUME>
300.6

> <PUBCHEM_COORDINATE_TYPE>
2
5
10

$$$$
118663034
  -OEChem-05102415123D

 54 56  0     1  0  0  0  0  0999 V2000
    1.0132    0.9421    2.1296 O   0  0  0  0  0  0  0  0  0  0  0  0
   -3.9123    1.7786    1.2346 O   0  0  0  0  0  0  0  0  0  0  0  0
    1.6721   -0.1785    0.2097 N   0  0  0  0  0  0  0  0  0  0  0  0
    3.9043   -3.8038   -0.0607 N   0  0  0  0  0  0  0  0  0  0  0  0
   -6.5227   -0.6829   -1.5826 N   0  0  0  0  0  0  0  0  0  0  0  0
   -6.9861   -0.7817   -0.3248 N   0  0  0  0  0  0  0  0  0  0  0  0
    3.0974   -0.0893    0.4456 C   0  0  1  0  0  0  0  0  0  0  0  0
    3.7942   -1.3542   -0.0909 C   0  0  0  0  0  0  0  0  0  0  0  0
    3.2082   -2.6448    0.4874 C   0  0  0  0  0  0  0  0  0  0  0  0
    3.6473    1.2009   -0.1259 C   0  0  0  0  0  0  0  0  0  0  0  0
    4.7014    1.8534    0.5136 C   0  0  0  0  0  0  0  0  0  0  0  0
    3.0996    1.7367   -1.2915 C   0  0  0  0  0  0  0  0  0  0  0  0
    0.7416    0.3535    1.0865 C   0  0  0  0  0  0  0  0  0  0  0  0
   -0.6829    0.1552    0.7146 C   0  0  0  0  0  0  0  0  0  0  0  0
    3.4164   -4.1081   -1.4068 C   0  0  0  0  0  0  0  0  0  0  0  0
    3.7387   -4.9652    0.8144 C   0  0  0  0  0  0  0  0  0  0  0  0
    5.2080    3.0418   -0.0127 C   0  0  0  0  0  0  0  0  0  0  0  0
    3.6062    2.9251   -1.8178 C   0  0  0  0  0  0  0  0  0  0  0  0
   -1.6499    1.0626    1.1476 C   0  0  0  0  0  0  0  0  0  0  0  0
   -1.0532   -0.9377   -0.0690 C   0  0  0  0  0  0  0  0  0  0  0  0
   -3.3575   -0.2159    0.0131 C   0  0  0  0  0  0  0  0  0  0  0  0
    4.6605    3.5775   -1.1786 C   0  0  0  0  0  0  0  0  0  0  0  0
   -2.9872    0.8771    0.7968 C   0  0  0  0  0  0  0  0  0  0  0  0
   -2.3905   -1.1234   -0.4196 C   0  0  0  0  0  0  0  0  0  0  0  0
   -4.7302   -0.4251   -0.3616 C   0  0  0  0  0  0  0  0  0  0  0  0
   -5.1778   -0.4692   -1.6593 C   0  0  0  0  0  0  0  0  0  0  0  0
   -5.8864   -0.6233    0.4166 C   0  0  0  0  0  0  0  0  0  0  0  0
   -4.1725    2.8985    0.3917 C   0  0  0  0  0  0  0  0  0  0  0  0
    3.2386   -0.0613    1.5346 H   0  0  0  0  0  0  0  0  0  0  0  0
    4.8672   -1.3002    0.1372 H   0  0  0  0  0  0  0  0  0  0  0  0
    3.7121   -1.3529   -1.1847 H   0  0  0  0  0  0  0  0  0  0  0  0
    3.3522   -2.6000    1.5753 H   0  0  0  0  0  0  0  0  0  0  0  0
    2.1270   -2.7200    0.3200 H   0  0  0  0  0  0  0  0  0  0  0  0
    1.3731   -0.5679   -0.6787 H   0  0  0  0  0  0  0  0  0  0  0  0
    5.1379    1.4451    1.4212 H   0  0  0  0  0  0  0  0  0  0  0  0
    2.2902    1.2448   -1.8233 H   0  0  0  0  0  0  0  0  0  0  0  0
    3.9394   -4.9831   -1.8102 H   0  0  0  0  0  0  0  0  0  0  0  0
    2.3414   -4.3226   -1.4204 H   0  0  0  0  0  0  0  0  0  0  0  0
    3.6154   -3.2925   -2.1081 H   0  0  0  0  0  0  0  0  0  0  0  0
    4.1602   -4.7654    1.8060 H   0  0  0  0  0  0  0  0  0  0  0  0
    2.6856   -5.2442    0.9351 H   0  0  0  0  0  0  0  0  0  0  0  0
    4.2812   -5.8293    0.4149 H   0  0  0  0  0  0  0  0  0  0  0  0
    6.0291    3.5497    0.4847 H   0  0  0  0  0  0  0  0  0  0  0  0
    3.1828    3.3405   -2.7276 H   0  0  0  0  0  0  0  0  0  0  0  0
   -1.3721    1.9201    1.7558 H   0  0  0  0  0  0  0  0  0  0  0  0
   -0.3370   -1.6838   -0.4005 H   0  0  0  0  0  0  0  0  0  0  0  0
    5.0556    4.5021   -1.5890 H   0  0  0  0  0  0  0  0  0  0  0  0
   -2.6589   -1.9882   -1.0223 H   0  0  0  0  0  0  0  0  0  0  0  0
   -4.6784   -0.3690   -2.6131 H   0  0  0  0  0  0  0  0  0  0  0  0
   -5.9778   -0.6602    1.4931 H   0  0  0  0  0  0  0  0  0  0  0  0
   -7.1826   -0.7709   -2.3452 H   0  0  0  0  0  0  0  0  0  0  0  0
   -4.9647    3.4957    0.8515 H   0  0  0  0  0  0  0  0  0  0  0  0
   -4.5089    2.5769   -0.5986 H   0  0  0  0  0  0  0  0  0  0  0  0
   -3.2766    3.5205    0.2981 H   0  0  0  0  0  0  0  0  0  0  0  0
  1 13  2  0  0  0  0
  2 23  1  0  0  0  0
  2 28  1  0  0  0  0
  3  7  1  0  0  0  0
  3 13  1  0  0  0  0
  3 34  1  0  0  0  0
  4  9  1  0  0  0  0
  4 15  1  0  0  0  0
  4 16  1  0  0  0  0
  5  6  1  0  0  0  0
  5 26  1  0  0  0  0
  5 51  1  0  0  0  0
  6 27  2  0  0  0  0
  7  8  1  0  0  0  0
  7 10  1  0  0  0  0
  7 29  1  0  0  0  0
  8  9  1  0  0  0  0
  8 30  1  0  0  0  0
  8 31  1  0  0  0  0
  9 32  1  0  0  0  0
  9 33  1  0  0  0  0
 10 11  2  0  0  0  0
 10 12  1  0  0  0  0
 11 17  1  0  0  0  0
 11 35  1  0  0  0  0
 12 18  2  0  0  0  0
 12 36  1  0  0  0  0
 13 14  1  0  0  0  0
 14 19  2  0  0  0  0
 14 20  1  0  0  0  0
 15 37  1  0  0  0  0
 15 38  1  0  0  0  0
 15 39  1  0  0  0  0
 16 40  1  0  0  0  0
 16 41  1  0  0  0  0
 16 42  1  0  0  0  0
 17 22  2  0  0  0  0
 17 43  1  0  0  0  0
 18 22  1  0  0  0  0
 18 44  1  0  0  0  0
 19 23  1  0  0  0  0
 19 45  1  0  0  0  0
 20 24  2  0  0  0  0
 20 46  1  0  0  0  0
 21 23  2  0  0  0  0
 21 24  1  0  0  0  0
 21 25  1  0  0  0  0
 22 47  1  0  0  0  0
 24 48  1  0  0  0  0
 25 26  2  0  0  0  0
 25 27  1  0  0  0  0
 26 49  1  0  0  0  0
 27 50  1  0  0  0  0
 28 52  1  0  0  0  0
 28 53  1  0  0  0  0
 28 54  1  0  0  0  0
M  END
> <PUBCHEM_COMPOUND_CID>
118663034

> <PUBCHEM_CONFORMER_RMSD>
1

> <PUBCHEM_CONFORMER_DIVERSEORDER>
3
50
13
67
40
69
64
42
31
55
28
19
37
60
68
49
70
57
44
25
14
45
22
48
27
1
51
4
35
62
47
34
58
65
10
30
17
21
6
24
20
33
11
43
9
32
36
15
41
5
59
39
29
18
66
38
54
12
8
46
23
26
61
53
52
7
16
63
56
2

> <PUBCHEM_MMFF94_PARTIAL_CHARGES>
39
1 -0.57
10 -0.14
11 -0.15
12 -0.15
13 0.54
14 0.09
15 0.27
16 0.27
17 -0.15
18 -0.15
19 -0.15
2 -0.36
20 -0.15
21 0.05
22 -0.15
23 0.08
24 -0.15
25 -0.05
26 -0.3
27 0.14
28 0.28
3 -0.73
34 0.37
35 0.15
36 0.15
4 -0.81
43 0.15
44 0.15
45 0.15
46 0.15
47 0.15
48 0.15
49 0.15
5 0.3
50 0.15
51 0.27
6 -0.71
7 0.44
9 0.27

> <PUBCHEM_EFFECTIVE_ROTOR_COUNT>
9

> <PUBCHEM_PHARMACOPHORE_FEATURES>
9
1 1 acceptor
1 2 acceptor
1 3 donor
1 4 cation
1 5 donor
1 6 acceptor
5 5 6 25 26 27 rings
6 10 11 12 17 18 22 rings
6 14 19 20 21 23 24 rings

> <PUBCHEM_HEAVY_ATOM_COUNT>
28

> <PUBCHEM_ATOM_DEF_STEREO_COUNT>
0

> <PUBCHEM_ATOM_UDEF_STEREO_COUNT>
1

> <PUBCHEM_BOND_DEF_STEREO_COUNT>
0

> <PUBCHEM_BOND_UDEF_STEREO_COUNT>
0

> <PUBCHEM_ISOTOPIC_ATOM_COUNT>
0

> <PUBCHEM_COMPONENT_COUNT>
1

> <PUBCHEM_CACTVS_TAUTO_COUNT>
9

> <PUBCHEM_CONFORMER_ID>
0712A77A00000003

> <PUBCHEM_MMFF94_ENERGY>
81.3386

> <PUBCHEM_FEATURE_SELFOVERLAP>
45.671

> <PUBCHEM_SHAPE_FINGERPRINT>
10554248 39 18270670979742096517
10595046 47 18341895195078840513
11069576 57 18273210872718957862
11135609 149 18044918105265352918
12107183 9 17909273477122660705
12166972 35 18269837519252209854
12788726 201 17417823845853758145
13150687 139 17987530372039146556
13533116 47 18343016692512348867
13540713 5 18059306348448278857
13617811 41 18339913944156651961
13968360 50 18337668715726728002
14068700 675 18129100010065487370
14347332 77 18130498640310775043
15250474 111 18201711856109927647
15840311 113 18187367572513090053
17818456 19 17771351863900422848
17844677 252 18335705996939114005
1813 80 18121220875217718642
18335252 98 18190183563288179683
19319366 153 18342450499995925158
20157964 124 18261108612186628813
20721686 124 18114454644038038682
21304303 282 17692242355191749302
22149856 69 18341626953260314619
23081809 10 18131631188985273387
23522609 53 17916046654082584609
23559900 14 18410290333022402466
25147074 1 18059585645844765851
3004659 81 18201441337652440870
34797466 226 17822005437443232735
4017518 198 18271535308268427566
44317340 157 18335144150940500529
46194498 28 18187641388744979638
474 4 17968380168821672768
5104073 3 17774154600849750595
57634706 280 17558255794879087712
6025842 7 18410011057295637934
6058803 2 18129114320242500904
7237137 82 18131071550383741321
9981440 41 18264776648176833680

> <PUBCHEM_SHAPE_MULTIPOLES>
544.56
15.46
5.02
1.47
18.99
4.92
-0.23
-1.74
-4.37
-12.05
-0.87
0.14
-0.34
-2.2

> <PUBCHEM_SHAPE_SELFOVERLAP>
1160.255

> <PUBCHEM_SHAPE_VOLUME>
306

> <PUBCHEM_COORDINATE_TYPE>
2
5
10

$$$$
85469694
  -OEChem-05102415123D

 43 45  0     1  0  0  0  0  0999 V2000
    6.5153    2.7719   -0.1051 F   0  0  0  0  0  0  0  0  0  0  0  0
   -2.3313    1.9385    0.0585 O   0  0  0  0  0  0  0  0  0  0  0  0
    0.7197   -3.0074   -0.9792 O   0  0  0  0  0  0  0  0  0  0  0  0
    1.6110   -1.2009    0.1695 N   0  0  0  0  0  0  0  0  0  0  0  0
   -6.4560    1.4610   -0.3530 N   0  0  0  0  0  0  0  0  0  0  0  0
   -6.7665    0.8123    0.7823 N   0  0  0  0  0  0  0  0  0  0  0  0
    2.9902   -1.6289    0.1110 C   0  0  1  0  0  0  0  0  0  0  0  0
    3.9352   -0.4481    0.0529 C   0  0  0  0  0  0  0  0  0  0  0  0
    3.2983   -2.5696    1.2741 C   0  0  0  0  0  0  0  0  0  0  0  0
   -0.7786   -1.3507   -0.2658 C   0  0  0  0  0  0  0  0  0  0  0  0
    0.5512   -1.9270   -0.3863 C   0  0  0  0  0  0  0  0  0  0  0  0
   -3.3301   -0.2458   -0.0379 C   0  0  0  0  0  0  0  0  0  0  0  0
   -2.2089    0.5841   -0.0453 C   0  0  0  0  0  0  0  0  0  0  0  0
   -0.9331    0.0316   -0.1592 C   0  0  0  0  0  0  0  0  0  0  0  0
    4.2446    0.1383   -1.1743 C   0  0  0  0  0  0  0  0  0  0  0  0
    4.4974    0.0535    1.2270 C   0  0  0  0  0  0  0  0  0  0  0  0
   -1.8999   -2.1805   -0.2583 C   0  0  0  0  0  0  0  0  0  0  0  0
   -3.1756   -1.6280   -0.1441 C   0  0  0  0  0  0  0  0  0  0  0  0
   -4.6545    0.3030    0.0768 C   0  0  0  0  0  0  0  0  0  0  0  0
    5.1156    1.2265   -1.2277 C   0  0  0  0  0  0  0  0  0  0  0  0
    5.3687    1.1414    1.1736 C   0  0  0  0  0  0  0  0  0  0  0  0
    5.6778    1.7281   -0.0537 C   0  0  0  0  0  0  0  0  0  0  0  0
   -5.2023    1.1905   -0.8171 C   0  0  0  0  0  0  0  0  0  0  0  0
   -5.6622    0.1065    1.0400 C   0  0  0  0  0  0  0  0  0  0  0  0
   -1.1260    2.6995    0.0411 C   0  0  0  0  0  0  0  0  0  0  0  0
    3.1257   -2.2132   -0.8089 H   0  0  0  0  0  0  0  0  0  0  0  0
    1.4166   -0.3733    0.7239 H   0  0  0  0  0  0  0  0  0  0  0  0
    2.7148   -3.4930    1.1755 H   0  0  0  0  0  0  0  0  0  0  0  0
    4.3562   -2.8536    1.2987 H   0  0  0  0  0  0  0  0  0  0  0  0
    3.0246   -2.1416    2.2450 H   0  0  0  0  0  0  0  0  0  0  0  0
   -0.0449    0.6481   -0.2120 H   0  0  0  0  0  0  0  0  0  0  0  0
    3.8116   -0.2421   -2.0957 H   0  0  0  0  0  0  0  0  0  0  0  0
    4.2700   -0.3600    2.2038 H   0  0  0  0  0  0  0  0  0  0  0  0
   -1.8001   -3.2600   -0.3364 H   0  0  0  0  0  0  0  0  0  0  0  0
   -4.0372   -2.2916   -0.1417 H   0  0  0  0  0  0  0  0  0  0  0  0
    5.3563    1.6836   -2.1829 H   0  0  0  0  0  0  0  0  0  0  0  0
    5.8039    1.5350    2.0875 H   0  0  0  0  0  0  0  0  0  0  0  0
   -4.8288    1.6462   -1.7238 H   0  0  0  0  0  0  0  0  0  0  0  0
   -5.6415   -0.5201    1.9207 H   0  0  0  0  0  0  0  0  0  0  0  0
   -7.1501    2.0756   -0.7596 H   0  0  0  0  0  0  0  0  0  0  0  0
   -1.4113    3.7519    0.1446 H   0  0  0  0  0  0  0  0  0  0  0  0
   -0.6035    2.6101   -0.9176 H   0  0  0  0  0  0  0  0  0  0  0  0
   -0.4831    2.4642    0.8964 H   0  0  0  0  0  0  0  0  0  0  0  0
  1 22  1  0  0  0  0
  2 13  1  0  0  0  0
  2 25  1  0  0  0  0
  3 11  2  0  0  0  0
  4  7  1  0  0  0  0
  4 11  1  0  0  0  0
  4 27  1  0  0  0  0
  5  6  1  0  0  0  0
  5 23  1  0  0  0  0
  5 40  1  0  0  0  0
  6 24  2  0  0  0  0
  7  8  1  0  0  0  0
  7  9  1  0  0  0  0
  7 26  1  0  0  0  0
  8 15  2  0  0  0  0
  8 16  1  0  0  0  0
  9 28  1  0  0  0  0
  9 29  1  0  0  0  0
  9 30  1  0  0  0  0
 10 11  1  0  0  0  0
 10 14  2  0  0  0  0
 10 17  1  0  0  0  0
 12 13  2  0  0  0  0
 12 18  1  0  0  0  0
 12 19  1  0  0  0  0
 13 14  1  0  0  0  0
 14 31  1  0  0  0  0
 15 20  1  0  0  0  0
 15 32  1  0  0  0  0
 16 21  2  0  0  0  0
 16 33  1  0  0  0  0
 17 18  2  0  0  0  0
 17 34  1  0  0  0  0
 18 35  1  0  0  0  0
 19 23  2  0  0  0  0
 19 24  1  0  0  0  0
 20 22  2  0  0  0  0
 20 36  1  0  0  0  0
 21 22  1  0  0  0  0
 21 37  1  0  0  0  0
 23 38  1  0  0  0  0
 24 39  1  0  0  0  0
 25 41  1  0  0  0  0
 25 42  1  0  0  0  0
 25 43  1  0  0  0  0
M  END
> <PUBCHEM_COMPOUND_CID>
85469694

> <PUBCHEM_CONFORMER_RMSD>
0.8

> <PUBCHEM_CONFORMER_DIVERSEORDER>
6
19
18
1
16
23
2
12
20
5
22
24
10
25
11
15
17
7
3
13
9
21
4
8
14

> <PUBCHEM_MMFF94_PARTIAL_CHARGES>
35
1 -0.19
10 0.09
11 0.54
12 0.05
13 0.08
14 -0.15
15 -0.15
16 -0.15
17 -0.15
18 -0.15
19 -0.05
2 -0.36
20 -0.15
21 -0.15
22 0.19
23 -0.3
24 0.14
25 0.28
27 0.37
3 -0.57
31 0.15
32 0.15
33 0.15
34 0.15
35 0.15
36 0.15
37 0.15
38 0.15
39 0.15
4 -0.73
40 0.27
5 0.3
6 -0.71
7 0.44
8 -0.14

> <PUBCHEM_EFFECTIVE_ROTOR_COUNT>
6

> <PUBCHEM_PHARMACOPHORE_FEATURES>
8
1 2 acceptor
1 3 acceptor
1 4 donor
1 5 donor
1 6 acceptor
5 5 6 19 23 24 rings
6 10 12 13 14 17 18 rings
6 8 15 16 20 21 22 rings

> <PUBCHEM_HEAVY_ATOM_COUNT>
25

> <PUBCHEM_ATOM_DEF_STEREO_COUNT>
1

> <PUBCHEM_ATOM_UDEF_STEREO_COUNT>
0

> <PUBCHEM_BOND_DEF_STEREO_COUNT>
0

> <PUBCHEM_BOND_UDEF_STEREO_COUNT>
0

> <PUBCHEM_ISOTOPIC_ATOM_COUNT>
0

> <PUBCHEM_COMPONENT_COUNT>
1

> <PUBCHEM_CACTVS_TAUTO_COUNT>
9

> <PUBCHEM_CONFORMER_ID>
051829FE00000006

> <PUBCHEM_MMFF94_ENERGY>
71.7205

> <PUBCHEM_FEATURE_SELFOVERLAP>
40.597

> <PUBCHEM_SHAPE_FINGERPRINT>
10 15 18113622300407032043
10280341 67 17912353523617282856
10498660 4 18342178886421887714
10554248 39 18199173002452245031
10670039 82 18266192655897445268
10906281 52 18343030960799628139
12596602 18 17458343048059930872
12633257 1 15647053824249266846
12788726 201 17846502482662520313
12838862 33 18339344354020358132
13533116 47 17459188482402855682
13617811 41 18410284822606358785
13782708 43 9943223945424176153
14020679 6 17894918476912311569
14394314 77 18410578430607230669
14528608 73 18059851766318862535
14617045 38 18412828001485272752
14790565 3 18198065772894773081
14840074 17 18130784551746350221
14849402 71 18271813436975491497
15183329 4 12319464272647171331
15188451 53 11386357171298811334
15510800 12 11891592613266050248
15575132 122 18271244924516973845
17980427 23 18260829353777300327
19319366 153 18260539013903934858
20642791 178 17898018060067703604
21033648 29 18058722641366250218
21792934 111 18263914446087081561
22061861 79 11743835850677376033
23559900 14 18127693729618438118
270888 7 18340204184960426102
3472631 163 18271246122801780660
34797466 226 17988931033165713663
350125 39 18337670807302370366
3680242 22 18334576832736021768
4340502 62 17022903441037537858
5104073 3 18188776016204534073
53794403 172 18125436655927772144
550186 72 18410575038168720285
59682541 52 15338843010342600069
7808743 9 18268706289886551682
8988823 20 13695880246104901190
960060 61 13614524086773661106

> <PUBCHEM_SHAPE_MULTIPOLES>
480.53
16.62
2.94
1.06
2.61
0.37
0.08
-11.27
1.9
-1.98
-0.15
-0.83
0.07
-0.49

> <PUBCHEM_SHAPE_SELFOVERLAP>
1045.718

> <PUBCHEM_SHAPE_VOLUME>
263.9

> <PUBCHEM_COORDINATE_TYPE>
2
5
10

$$$$
90354062
  -OEChem-05102415123D

 47 49  0     1  0  0  0  0  0999 V2000
    3.5981    1.6487   -1.5889 O   0  0  0  0  0  0  0  0  0  0  0  0
   -4.3612   -1.9588   -0.0360 O   0  0  0  0  0  0  0  0  0  0  0  0
    0.6812   -2.1293    0.4293 O   0  0  0  0  0  0  0  0  0  0  0  0
    1.3300   -0.0935   -0.4707 N   0  0  0  0  0  0  0  0  0  0  0  0
   -6.8473    1.8504   -0.3874 N   0  0  0  0  0  0  0  0  0  0  0  0
   -7.1873    1.1823    0.7280 N   0  0  0  0  0  0  0  0  0  0  0  0
    2.7396   -0.4047   -0.5867 C   0  0  2  0  0  0  0  0  0  0  0  0
    3.5667    0.8821   -0.3851 C   0  0  1  0  0  0  0  0  0  0  0  0
    4.9737    0.6023    0.1038 C   0  0  0  0  0  0  0  0  0  0  0  0
    2.9973   -1.1101   -1.9176 C   0  0  0  0  0  0  0  0  0  0  0  0
    0.4120   -0.9976    0.0350 C   0  0  0  0  0  0  0  0  0  0  0  0
   -0.9997   -0.5359    0.0635 C   0  0  0  0  0  0  0  0  0  0  0  0
    5.2373    0.5411    1.4722 C   0  0  0  0  0  0  0  0  0  0  0  0
    6.0050    0.4059   -0.8148 C   0  0  0  0  0  0  0  0  0  0  0  0
   -3.6505    0.3321    0.1208 C   0  0  0  0  0  0  0  0  0  0  0  0
   -2.0390   -1.4641    0.0000 C   0  0  0  0  0  0  0  0  0  0  0  0
   -3.3644   -1.0301    0.0287 C   0  0  0  0  0  0  0  0  0  0  0  0
   -1.2858    0.8264    0.1556 C   0  0  0  0  0  0  0  0  0  0  0  0
   -2.6111    1.2603    0.1839 C   0  0  0  0  0  0  0  0  0  0  0  0
    6.5323    0.2834    1.9222 C   0  0  0  0  0  0  0  0  0  0  0  0
    7.3000    0.1482   -0.3648 C   0  0  0  0  0  0  0  0  0  0  0  0
   -5.0098    0.8009    0.1535 C   0  0  0  0  0  0  0  0  0  0  0  0
    7.5636    0.0868    1.0037 C   0  0  0  0  0  0  0  0  0  0  0  0
   -5.5538    1.6558   -0.7737 C   0  0  0  0  0  0  0  0  0  0  0  0
   -6.0608    0.5430    1.0538 C   0  0  0  0  0  0  0  0  0  0  0  0
   -3.9662   -3.3256   -0.1283 C   0  0  0  0  0  0  0  0  0  0  0  0
    2.9755   -1.1096    0.2211 H   0  0  0  0  0  0  0  0  0  0  0  0
    3.0747    1.5193    0.3621 H   0  0  0  0  0  0  0  0  0  0  0  0
    1.0177    0.7788   -0.8845 H   0  0  0  0  0  0  0  0  0  0  0  0
    2.4042   -2.0290   -1.9891 H   0  0  0  0  0  0  0  0  0  0  0  0
    4.0486   -1.3912   -2.0254 H   0  0  0  0  0  0  0  0  0  0  0  0
    2.7169   -0.4823   -2.7702 H   0  0  0  0  0  0  0  0  0  0  0  0
    4.4419    0.6900    2.1975 H   0  0  0  0  0  0  0  0  0  0  0  0
    5.8236    0.4436   -1.8853 H   0  0  0  0  0  0  0  0  0  0  0  0
    4.1734    2.4187   -1.4403 H   0  0  0  0  0  0  0  0  0  0  0  0
   -1.7586   -2.5087   -0.0774 H   0  0  0  0  0  0  0  0  0  0  0  0
   -0.5073    1.5790    0.2396 H   0  0  0  0  0  0  0  0  0  0  0  0
   -2.8118    2.3260    0.2676 H   0  0  0  0  0  0  0  0  0  0  0  0
    6.7375    0.2350    2.9876 H   0  0  0  0  0  0  0  0  0  0  0  0
    8.1029   -0.0060   -1.0797 H   0  0  0  0  0  0  0  0  0  0  0  0
    8.5717   -0.1144    1.3540 H   0  0  0  0  0  0  0  0  0  0  0  0
   -5.1529    2.1349   -1.6564 H   0  0  0  0  0  0  0  0  0  0  0  0
   -6.0568   -0.0828    1.9353 H   0  0  0  0  0  0  0  0  0  0  0  0
   -7.5505    2.4235   -0.8367 H   0  0  0  0  0  0  0  0  0  0  0  0
   -4.8840   -3.9219   -0.1679 H   0  0  0  0  0  0  0  0  0  0  0  0
   -3.4186   -3.6509    0.7630 H   0  0  0  0  0  0  0  0  0  0  0  0
   -3.4198   -3.5282   -1.0558 H   0  0  0  0  0  0  0  0  0  0  0  0
  1  8  1  0  0  0  0
  1 35  1  0  0  0  0
  2 17  1  0  0  0  0
  2 26  1  0  0  0  0
  3 11  2  0  0  0  0
  4  7  1  0  0  0  0
  4 11  1  0  0  0  0
  4 29  1  0  0  0  0
  5  6  1  0  0  0  0
  5 24  1  0  0  0  0
  5 44  1  0  0  0  0
  6 25  2  0  0  0  0
  7  8  1  0  0  0  0
  7 10  1  0  0  0  0
  7 27  1  0  0  0  0
  8  9  1  0  0  0  0
  8 28  1  0  0  0  0
  9 13  2  0  0  0  0
  9 14  1  0  0  0  0
 10 30  1  0  0  0  0
 10 31  1  0  0  0  0
 10 32  1  0  0  0  0
 11 12  1  0  0  0  0
 12 16  2  0  0  0  0
 12 18  1  0  0  0  0
 13 20  1  0  0  0  0
 13 33  1  0  0  0  0
 14 21  2  0  0  0  0
 14 34  1  0  0  0  0
 15 17  2  0  0  0  0
 15 19  1  0  0  0  0
 15 22  1  0  0  0  0
 16 17  1  0  0  0  0
 16 36  1  0  0  0  0
 18 19  2  0  0  0  0
 18 37  1  0  0  0  0
 19 38  1  0  0  0  0
 20 23  2  0  0  0  0
 20 39  1  0  0  0  0
 21 23  1  0  0  0  0
 21 40  1  0  0  0  0
 22 24  2  0  0  0  0
 22 25  1  0  0  0  0
 23 41  1  0  0  0  0
 24 42  1  0  0  0  0
 25 43  1  0  0  0  0
 26 45  1  0  0  0  0
 26 46  1  0  0  0  0
 26 47  1  0  0  0  0
M  END
> <PUBCHEM_COMPOUND_CID>
90354062

> <PUBCHEM_CONFORMER_RMSD>
0.8

> <PUBCHEM_CONFORMER_DIVERSEORDER>
3
65
31
71
64
53
18
33
41
58
5
46
56
30
61
68
35
6
40
2
39
20
67
70
55
11
34
62
50
37
36
13
51
45
59
52
14
16
44
17
21
63
15
24
66
57
42
27
7
54
10
29
60
23
69
48
1
28
72
43
8
38
26
4
49
47
22
25
19
32
9
12

> <PUBCHEM_MMFF94_PARTIAL_CHARGES>
38
1 -0.68
11 0.54
12 0.09
13 -0.15
14 -0.15
15 0.05
16 -0.15
17 0.08
18 -0.15
19 -0.15
2 -0.36
20 -0.15
21 -0.15
22 -0.05
23 -0.15
24 -0.3
25 0.14
26 0.28
29 0.37
3 -0.57
33 0.15
34 0.15
35 0.4
36 0.15
37 0.15
38 0.15
39 0.15
4 -0.73
40 0.15
41 0.15
42 0.15
43 0.15
44 0.27
5 0.3
6 -0.71
7 0.3
8 0.42
9 -0.14

> <PUBCHEM_EFFECTIVE_ROTOR_COUNT>
7

> <PUBCHEM_PHARMACOPHORE_FEATURES>
10
1 1 acceptor
1 1 donor
1 2 acceptor
1 3 acceptor
1 4 donor
1 5 donor
1 6 acceptor
5 5 6 22 24 25 rings
6 12 15 16 17 18 19 rings
6 9 13 14 20 21 23 rings

> <PUBCHEM_HEAVY_ATOM_COUNT>
26

> <PUBCHEM_ATOM_DEF_STEREO_COUNT>
2

> <PUBCHEM_ATOM_UDEF_STEREO_COUNT>
0

> <PUBCHEM_BOND_DEF_STEREO_COUNT>
0

> <PUBCHEM_BOND_UDEF_STEREO_COUNT>
0

> <PUBCHEM_ISOTOPIC_ATOM_COUNT>
0

> <PUBCHEM_COMPONENT_COUNT>
1

> <PUBCHEM_CACTVS_TAUTO_COUNT>
7

> <PUBCHEM_CONFORMER_ID>
0562B18E00000003

> <PUBCHEM_MMFF94_ENERGY>
76.2328

> <PUBCHEM_FEATURE_SELFOVERLAP>
50.748

> <PUBCHEM_SHAPE_FINGERPRINT>
10 15 18040440996553009145
10299344 5 16298107579921822608
10411042 1 17906735053669634047
10835480 77 17846499222840123618
11135609 187 13973966484807428461
11646440 116 18273220793887839192
11719270 70 18131351891372729798
12166972 35 16877946070337002428
12236239 1 17895193337871357640
12616971 3 17676209103887112543
12838862 33 18337658742770910429
13533116 47 17988082171882920462
13685833 64 12757151268852542768
14251764 18 17167865270436391444
14767858 380 12391510897581231160
15131766 46 15142965173454243231
15183329 4 17749380486330056806
15461852 350 17632573898544367372
1577012 14 18187649150098978020
20157964 124 16200152089282859580
20554085 129 18201425957285039658
21033648 29 17845637258170637432
21150785 3 14548734002305230393
21344244 181 13045939063657777040
21859007 373 17825379687466415101
220451 1 17312820498607999770
23081809 10 17894914087492761718
23198884 109 16415201152937515673
23402539 116 18410571825157558422
23522609 53 17459209472329803900
23559900 14 18273217499357057646
2838139 119 18413382142365895957
300161 21 18201719539784853383
345986 75 17096624571290472208
3545911 37 18342461421954905268
4073 2 18336272318532248098
4093350 32 17632018533440088454
5104073 3 18115874168618765648
5385378 56 18337671910929669554
54039377 194 16371552698269496642
57724786 102 16226342524406275244
59755656 215 18343025450261499310
59755656 520 16732985349097323539
636775 72 17917710188704310921

> <PUBCHEM_SHAPE_MULTIPOLES>
502.52
21.74
2.08
1.26
9.82
1.54
0
-8.44
-4.42
-4
0.2
2.07
-0.16
0.41

> <PUBCHEM_SHAPE_SELFOVERLAP>
1084.983

> <PUBCHEM_SHAPE_VOLUME>
276.7

> <PUBCHEM_COORDINATE_TYPE>
2
5
10

$$$$
118668473
  -OEChem-05102415123D

 49 51  0     1  0  0  0  0  0999 V2000
   -3.9038    3.6317   -1.0178 O   0  0  0  0  0  0  0  0  0  0  0  0
    2.9872   -0.5995   -1.8953 O   0  0  0  0  0  0  0  0  0  0  0  0
   -1.1424   -0.4442    2.3305 O   0  0  0  0  0  0  0  0  0  0  0  0
   -2.7664    3.0217    0.8939 O   0  0  0  0  0  0  0  0  0  0  0  0
   -1.5565    0.1840    0.1374 N   0  0  0  0  0  0  0  0  0  0  0  0
    6.9470    0.5506    0.0560 N   0  0  0  0  0  0  0  0  0  0  0  0
    7.0104   -0.7121   -0.4000 N   0  0  0  0  0  0  0  0  0  0  0  0
   -2.9976    0.2500    0.2520 C   0  0  1  0  0  0  0  0  0  0  0  0
   -3.5744    1.3362   -0.6698 C   0  0  0  0  0  0  0  0  0  0  0  0
   -3.6172   -1.1052   -0.0235 C   0  0  0  0  0  0  0  0  0  0  0  0
   -0.7436   -0.1627    1.2036 C   0  0  0  0  0  0  0  0  0  0  0  0
    0.7167   -0.1585    0.9305 C   0  0  0  0  0  0  0  0  0  0  0  0
   -4.7665   -1.4988    0.6619 C   0  0  0  0  0  0  0  0  0  0  0  0
   -3.0380   -1.9589   -0.9623 C   0  0  0  0  0  0  0  0  0  0  0  0
    3.4590   -0.1469    0.4178 C   0  0  0  0  0  0  0  0  0  0  0  0
   -3.3538    2.7392   -0.1411 C   0  0  0  0  0  0  0  0  0  0  0  0
    1.1851   -0.3824   -0.3642 C   0  0  0  0  0  0  0  0  0  0  0  0
    2.5563   -0.3767   -0.6206 C   0  0  0  0  0  0  0  0  0  0  0  0
    1.6193    0.0711    1.9689 C   0  0  0  0  0  0  0  0  0  0  0  0
    2.9905    0.0766    1.7126 C   0  0  0  0  0  0  0  0  0  0  0  0
   -5.3369   -2.7464    0.4084 C   0  0  0  0  0  0  0  0  0  0  0  0
   -3.6084   -3.2065   -1.2159 C   0  0  0  0  0  0  0  0  0  0  0  0
    4.8765   -0.1351    0.1753 C   0  0  0  0  0  0  0  0  0  0  0  0
   -4.7579   -3.6000   -0.5306 C   0  0  0  0  0  0  0  0  0  0  0  0
    5.6912    0.9448    0.4139 C   0  0  0  0  0  0  0  0  0  0  0  0
    5.7427   -1.1257   -0.3248 C   0  0  0  0  0  0  0  0  0  0  0  0
    3.1435    0.5429   -2.7337 C   0  0  0  0  0  0  0  0  0  0  0  0
   -3.7619    5.0110   -0.6631 C   0  0  0  0  0  0  0  0  0  0  0  0
   -3.2230    0.5083    1.2955 H   0  0  0  0  0  0  0  0  0  0  0  0
   -3.1336    1.2674   -1.6717 H   0  0  0  0  0  0  0  0  0  0  0  0
   -4.6603    1.2058   -0.7612 H   0  0  0  0  0  0  0  0  0  0  0  0
   -1.1550    0.4322   -0.7603 H   0  0  0  0  0  0  0  0  0  0  0  0
   -5.2283   -0.8421    1.3943 H   0  0  0  0  0  0  0  0  0  0  0  0
   -2.1528   -1.6744   -1.5241 H   0  0  0  0  0  0  0  0  0  0  0  0
    0.5141   -0.5992   -1.1905 H   0  0  0  0  0  0  0  0  0  0  0  0
    1.2738    0.2513    2.9834 H   0  0  0  0  0  0  0  0  0  0  0  0
    3.6765    0.2544    2.5376 H   0  0  0  0  0  0  0  0  0  0  0  0
   -6.2322   -3.0527    0.9415 H   0  0  0  0  0  0  0  0  0  0  0  0
   -3.1600   -3.8699   -1.9496 H   0  0  0  0  0  0  0  0  0  0  0  0
   -5.2027   -4.5708   -0.7289 H   0  0  0  0  0  0  0  0  0  0  0  0
    5.5017    1.9388    0.7951 H   0  0  0  0  0  0  0  0  0  0  0  0
    5.5070   -2.1330   -0.6383 H   0  0  0  0  0  0  0  0  0  0  0  0
    7.8028    1.0898    0.0962 H   0  0  0  0  0  0  0  0  0  0  0  0
    3.8476    1.2583   -2.2979 H   0  0  0  0  0  0  0  0  0  0  0  0
    2.1760    1.0263   -2.9022 H   0  0  0  0  0  0  0  0  0  0  0  0
    3.5384    0.2085   -3.6970 H   0  0  0  0  0  0  0  0  0  0  0  0
   -4.2403    5.6129   -1.4404 H   0  0  0  0  0  0  0  0  0  0  0  0
   -2.7030    5.2816   -0.6113 H   0  0  0  0  0  0  0  0  0  0  0  0
   -4.2594    5.2098    0.2909 H   0  0  0  0  0  0  0  0  0  0  0  0
  1 16  1  0  0  0  0
  1 28  1  0  0  0  0
  2 18  1  0  0  0  0
  2 27  1  0  0  0  0
  3 11  2  0  0  0  0
  4 16  2  0  0  0  0
  5  8  1  0  0  0  0
  5 11  1  0  0  0  0
  5 32  1  0  0  0  0
  6  7  1  0  0  0  0
  6 25  1  0  0  0  0
  6 43  1  0  0  0  0
  7 26  2  0  0  0  0
  8  9  1  0  0  0  0
  8 10  1  0  0  0  0
  8 29  1  0  0  0  0
  9 16  1  0  0  0  0
  9 30  1  0  0  0  0
  9 31  1  0  0  0  0
 10 13  2  0  0  0  0
 10 14  1  0  0  0  0
 11 12  1  0  0  0  0
 12 17  2  0  0  0  0
 12 19  1  0  0  0  0
 13 21  1  0  0  0  0
 13 33  1  0  0  0  0
 14 22  2  0  0  0  0
 14 34  1  0  0  0  0
 15 18  2  0  0  0  0
 15 20  1  0  0  0  0
 15 23  1  0  0  0  0
 17 18  1  0  0  0  0
 17 35  1  0  0  0  0
 19 20  2  0  0  0  0
 19 36  1  0  0  0  0
 20 37  1  0  0  0  0
 21 24  2  0  0  0  0
 21 38  1  0  0  0  0
 22 24  1  0  0  0  0
 22 39  1  0  0  0  0
 23 25  2  0  0  0  0
 23 26  1  0  0  0  0
 24 40  1  0  0  0  0
 25 41  1  0  0  0  0
 26 42  1  0  0  0  0
 27 44  1  0  0  0  0
 27 45  1  0  0  0  0
 27 46  1  0  0  0  0
 28 47  1  0  0  0  0
 28 48  1  0  0  0  0
 28 49  1  0  0  0  0
M  END
> <PUBCHEM_COMPOUND_CID>
118668473

> <PUBCHEM_CONFORMER_RMSD>
1

> <PUBCHEM_CONFORMER_DIVERSEORDER>
1
9
47
31
23
40
27
39
46
48
16
25
35
10
37
14
43
41
17
32
49
6
52
15
45
24
20
21
38
12
11
34
28
18
36
19
51
26
13
44
33
30
50
42
4
29
22
2
7
3
5
8

> <PUBCHEM_MMFF94_PARTIAL_CHARGES>
40
1 -0.43
10 -0.14
11 0.54
12 0.09
13 -0.15
14 -0.15
15 0.05
16 0.66
17 -0.15
18 0.08
19 -0.15
2 -0.36
20 -0.15
21 -0.15
22 -0.15
23 -0.05
24 -0.15
25 -0.3
26 0.14
27 0.28
28 0.28
3 -0.57
32 0.37
33 0.15
34 0.15
35 0.15
36 0.15
37 0.15
38 0.15
39 0.15
4 -0.57
40 0.15
41 0.15
42 0.15
43 0.27
5 -0.73
6 0.3
7 -0.71
8 0.44
9 0.06

> <PUBCHEM_EFFECTIVE_ROTOR_COUNT>
9

> <PUBCHEM_PHARMACOPHORE_FEATURES>
9
1 2 acceptor
1 3 acceptor
1 4 acceptor
1 5 donor
1 6 donor
1 7 acceptor
5 6 7 23 25 26 rings
6 10 13 14 21 22 24 rings
6 12 15 17 18 19 20 rings

> <PUBCHEM_HEAVY_ATOM_COUNT>
28

> <PUBCHEM_ATOM_DEF_STEREO_COUNT>
1

> <PUBCHEM_ATOM_UDEF_STEREO_COUNT>
0

> <PUBCHEM_BOND_DEF_STEREO_COUNT>
0

> <PUBCHEM_BOND_UDEF_STEREO_COUNT>
0

> <PUBCHEM_ISOTOPIC_ATOM_COUNT>
0

> <PUBCHEM_COMPONENT_COUNT>
1

> <PUBCHEM_CACTVS_TAUTO_COUNT>
18

> <PUBCHEM_CONFORMER_ID>
0712BCB900000001

> <PUBCHEM_MMFF94_ENERGY>
78.9813

> <PUBCHEM_FEATURE_SELFOVERLAP>
45.673

> <PUBCHEM_SHAPE_FINGERPRINT>
105312 117 18268431218421522365
10595046 47 18334293193417436674
11056379 131 18409725171250221459
11101153 10 18189339146325788948
11135926 11 16200435758866338412
11796584 16 18197777709522866522
12166972 35 17676768781450234564
12788726 201 18260258647671870963
13402501 40 17417536933254083638
13583140 156 17989198231396981598
13673619 4 17916588777354302995
13690498 29 18342171206519430035
13782708 43 17917428782541800822
14251751 18 18200878477751044494
14294032 229 18336546002807471161
14347332 77 18410290358433054969
14910302 57 18129682828104902479
15439362 3 17762616192493601517
15876981 60 18260551125558657477
16992828 155 17387686116046688573
17349148 13 17603300479454711962
17844677 252 18411422830188668600
1813 80 18196934599010716339
20101258 96 18335983172954605961
20505436 4 17824542968251099953
21033650 10 18190202129877405380
2132832 1 18041562554211187821
21521721 280 15123227802012330922
21623969 137 16558761147623603230
21756936 100 17749680584095514041
21792961 116 17703794687419959566
22393880 68 18342451526587853226
23081809 10 17749390348192237818
23522609 53 17557172753802019472
23557571 272 18343864415702947185
32027 91 17698739003954330150
46194498 28 18130790122377091512
465052 167 17418099849733476258
5028188 123 10231754535948267840
5104073 3 15840728279303793946
5219985 13 17830163616027144301
5283173 99 18412261710263345568
531348 171 18337670802495700458
6376802 90 18199192789055003238
6700243 42 17985016822894013309
7495541 125 17774723181626407794
7808743 9 18262795142965630089

> <PUBCHEM_SHAPE_MULTIPOLES>
537.81
15.42
4.12
1.73
18.84
4.87
-0.19
-4.31
-2.15
-12.04
-1.55
1.04
0
0.42

> <PUBCHEM_SHAPE_SELFOVERLAP>
1157.109

> <PUBCHEM_SHAPE_VOLUME>
296.8

> <PUBCHEM_COORDINATE_TYPE>
2
5
10

$$$$
90385108
  -OEChem-05102415123D

 53 55  0     0  0  0  0  0  0999 V2000
   -3.5755   -1.5637    2.2167 F   0  0  0  0  0  0  0  0  0  0  0  0
   -3.8721    1.8448    1.6073 O   0  0  0  0  0  0  0  0  0  0  0  0
   -1.0455    2.4196   -1.8694 O   0  0  0  0  0  0  0  0  0  0  0  0
    3.1148   -1.0856   -1.6393 O   0  0  0  0  0  0  0  0  0  0  0  0
   -1.9428    0.8738   -0.3338 N   0  0  0  0  0  0  0  0  0  0  0  0
    6.1905   -0.3022    1.6380 N   0  0  0  0  0  0  0  0  0  0  0  0
    6.7224   -0.0273    0.4348 N   0  0  0  0  0  0  0  0  0  0  0  0
   -3.9452    2.2280    0.2321 C   0  0  0  0  0  0  0  0  0  0  0  0
   -3.3292    1.1193   -0.6340 C   0  0  0  0  0  0  0  0  0  0  0  0
   -1.6666   -0.1316    0.6965 C   0  0  0  0  0  0  0  0  0  0  0  0
   -3.2063    3.5586    0.0795 C   0  0  0  0  0  0  0  0  0  0  0  0
   -5.4231    2.4094   -0.1261 C   0  0  0  0  0  0  0  0  0  0  0  0
   -0.9051    1.5641   -0.9962 C   0  0  0  0  0  0  0  0  0  0  0  0
   -2.1705   -1.4905    0.3048 C   0  0  0  0  0  0  0  0  0  0  0  0
    0.4801    1.2314   -0.6271 C   0  0  0  0  0  0  0  0  0  0  0  0
    1.1600    0.2212   -1.3074 C   0  0  0  0  0  0  0  0  0  0  0  0
    1.1136    1.9276    0.4024 C   0  0  0  0  0  0  0  0  0  0  0  0
   -3.1138   -2.1423    1.0993 C   0  0  0  0  0  0  0  0  0  0  0  0
   -1.6952   -2.1009   -0.8560 C   0  0  0  0  0  0  0  0  0  0  0  0
    3.1073    0.6036    0.0708 C   0  0  0  0  0  0  0  0  0  0  0  0
    2.4736   -0.0927   -0.9585 C   0  0  0  0  0  0  0  0  0  0  0  0
    2.4271    1.6135    0.7514 C   0  0  0  0  0  0  0  0  0  0  0  0
    4.4615    0.2973    0.4455 C   0  0  0  0  0  0  0  0  0  0  0  0
   -3.5817   -3.4043    0.7331 C   0  0  0  0  0  0  0  0  0  0  0  0
   -2.1634   -3.3627   -1.2224 C   0  0  0  0  0  0  0  0  0  0  0  0
   -3.1065   -4.0146   -0.4278 C   0  0  0  0  0  0  0  0  0  0  0  0
    4.8396   -0.1237    1.6971 C   0  0  0  0  0  0  0  0  0  0  0  0
    5.6615    0.3383   -0.2894 C   0  0  0  0  0  0  0  0  0  0  0  0
    2.9905   -2.4082   -1.1220 C   0  0  0  0  0  0  0  0  0  0  0  0
   -3.9059    0.1951   -0.5284 H   0  0  0  0  0  0  0  0  0  0  0  0
   -3.4007    1.4115   -1.6895 H   0  0  0  0  0  0  0  0  0  0  0  0
   -2.1261    0.2075    1.6292 H   0  0  0  0  0  0  0  0  0  0  0  0
   -0.6044   -0.2299    0.9298 H   0  0  0  0  0  0  0  0  0  0  0  0
   -3.1616    3.8812   -0.9653 H   0  0  0  0  0  0  0  0  0  0  0  0
   -3.7117    4.3465    0.6513 H   0  0  0  0  0  0  0  0  0  0  0  0
   -2.1920    3.5093    0.4887 H   0  0  0  0  0  0  0  0  0  0  0  0
   -5.9798    1.4799    0.0396 H   0  0  0  0  0  0  0  0  0  0  0  0
   -5.5506    2.7093   -1.1714 H   0  0  0  0  0  0  0  0  0  0  0  0
   -5.8932    3.1671    0.5113 H   0  0  0  0  0  0  0  0  0  0  0  0
   -4.2749    2.5517    2.1401 H   0  0  0  0  0  0  0  0  0  0  0  0
    0.6844   -0.3041   -2.1308 H   0  0  0  0  0  0  0  0  0  0  0  0
    0.5926    2.7169    0.9382 H   0  0  0  0  0  0  0  0  0  0  0  0
   -0.9706   -1.6137   -1.4950 H   0  0  0  0  0  0  0  0  0  0  0  0
    2.9030    2.1722    1.5541 H   0  0  0  0  0  0  0  0  0  0  0  0
   -4.3161   -3.9115    1.3518 H   0  0  0  0  0  0  0  0  0  0  0  0
   -1.7950   -3.8371   -2.1273 H   0  0  0  0  0  0  0  0  0  0  0  0
   -3.4712   -4.9969   -0.7132 H   0  0  0  0  0  0  0  0  0  0  0  0
    4.2873   -0.3119    2.6075 H   0  0  0  0  0  0  0  0  0  0  0  0
    5.8114    0.6194   -1.3224 H   0  0  0  0  0  0  0  0  0  0  0  0
    6.8099   -0.6089    2.3777 H   0  0  0  0  0  0  0  0  0  0  0  0
    3.5918   -3.0767   -1.7442 H   0  0  0  0  0  0  0  0  0  0  0  0
    1.9471   -2.7368   -1.1642 H   0  0  0  0  0  0  0  0  0  0  0  0
    3.3583   -2.4649   -0.0930 H   0  0  0  0  0  0  0  0  0  0  0  0
  1 18  1  0  0  0  0
  2  8  1  0  0  0  0
  2 40  1  0  0  0  0
  3 13  2  0  0  0  0
  4 21  1  0  0  0  0
  4 29  1  0  0  0  0
  5  9  1  0  0  0  0
  5 10  1  0  0  0  0
  5 13  1  0  0  0  0
  6  7  1  0  0  0  0
  6 27  1  0  0  0  0
  6 50  1  0  0  0  0
  7 28  2  0  0  0  0
  8  9  1  0  0  0  0
  8 11  1  0  0  0  0
  8 12  1  0  0  0  0
  9 30  1  0  0  0  0
  9 31  1  0  0  0  0
 10 14  1  0  0  0  0
 10 32  1  0  0  0  0
 10 33  1  0  0  0  0
 11 34  1  0  0  0  0
 11 35  1  0  0  0  0
 11 36  1  0  0  0  0
 12 37  1  0  0  0  0
 12 38  1  0  0  0  0
 12 39  1  0  0  0  0
 13 15  1  0  0  0  0
 14 18  1  0  0  0  0
 14 19  2  0  0  0  0
 15 16  2  0  0  0  0
 15 17  1  0  0  0  0
 16 21  1  0  0  0  0
 16 41  1  0  0  0  0
 17 22  2  0  0  0  0
 17 42  1  0  0  0  0
 18 24  2  0  0  0  0
 19 25  1  0  0  0  0
 19 43  1  0  0  0  0
 20 21  2  0  0  0  0
 20 22  1  0  0  0  0
 20 23  1  0  0  0  0
 22 44  1  0  0  0  0
 23 27  2  0  0  0  0
 23 28  1  0  0  0  0
 24 26  1  0  0  0  0
 24 45  1  0  0  0  0
 25 26  2  0  0  0  0
 25 46  1  0  0  0  0
 26 47  1  0  0  0  0
 27 48  1  0  0  0  0
 28 49  1  0  0  0  0
 29 51  1  0  0  0  0
 29 52  1  0  0  0  0
 29 53  1  0  0  0  0
M  END
> <PUBCHEM_COMPOUND_CID>
90385108

> <PUBCHEM_CONFORMER_RMSD>
1

> <PUBCHEM_CONFORMER_DIVERSEORDER>
1
107
95
83
131
88
133
102
122
54
15
50
68
126
18
27
115
37
98
46
77
118
91
30
52
6
67
127
135
14
43
71
74
86
57
132
96
129
69
22
79
72
121
64
61
33
113
62
141
24
110
21
44
26
144
28
116
93
78
92
125
97
89
100
7
56
41
11
112
108
4
20
119
66
23
109
99
49
32
70
139
103
45
142
31
117
76
114
80
104
3
47
136
42
73
10
101
13
63
2
29
138
51
55
48
38
53
84
106
85
60
120
140
9
134
40
130
124
16
111
58
8
19
17
59
81
128
143
35
5
36
12
82
75
105
39
123
87
137
90
94
25
34
65

> <PUBCHEM_MMFF94_PARTIAL_CHARGES>
38
1 -0.19
10 0.44
13 0.54
14 -0.14
15 0.09
16 -0.15
17 -0.15
18 0.19
19 -0.15
2 -0.68
20 0.05
21 0.08
22 -0.15
23 -0.05
24 -0.15
25 -0.15
26 -0.15
27 -0.3
28 0.14
29 0.28
3 -0.57
4 -0.36
40 0.4
41 0.15
42 0.15
43 0.15
44 0.15
45 0.15
46 0.15
47 0.15
48 0.15
49 0.15
5 -0.66
50 0.27
6 0.3
7 -0.71
8 0.28
9 0.3

> <PUBCHEM_EFFECTIVE_ROTOR_COUNT>
8

> <PUBCHEM_PHARMACOPHORE_FEATURES>
10
1 2 acceptor
1 2 donor
1 3 acceptor
1 4 acceptor
1 6 donor
1 7 acceptor
3 8 11 12 hydrophobe
5 6 7 23 27 28 rings
6 14 18 19 24 25 26 rings
6 15 16 17 20 21 22 rings

> <PUBCHEM_HEAVY_ATOM_COUNT>
29

> <PUBCHEM_ATOM_DEF_STEREO_COUNT>
0

> <PUBCHEM_ATOM_UDEF_STEREO_COUNT>
0

> <PUBCHEM_BOND_DEF_STEREO_COUNT>
0

> <PUBCHEM_BOND_UDEF_STEREO_COUNT>
0

> <PUBCHEM_ISOTOPIC_ATOM_COUNT>
0

> <PUBCHEM_COMPONENT_COUNT>
1

> <PUBCHEM_CACTVS_TAUTO_COUNT>
4

> <PUBCHEM_CONFORMER_ID>
05632AD400000001

> <PUBCHEM_MMFF94_ENERGY>
91.2567

> <PUBCHEM_FEATURE_SELFOVERLAP>
50.747

> <PUBCHEM_SHAPE_FINGERPRINT>
11552529 35 18340198691380905880
12035758 1 18337689533375274201
12293681 4 18272370841108080416
12553582 1 17905625641371347895
12597179 24 18272083838444513022
12633257 1 17916034631756550338
12643181 29 18339925905867164926
12788726 201 18118138084867352391
13004483 165 18053942033454511439
13140716 1 18335421313131892069
13540713 5 17970078926654595853
13583140 156 17346312730574913208
13692114 37 18339936927063982867
13726171 33 18121247456707211844
14178342 30 18410858776054229558
14844126 61 18409443726164299771
14866123 147 18335136518799420771
15927050 60 18268144271466871311
16994733 274 16199589053425104289
17980427 23 17749114430760732076
19141452 34 18335700520423632804
19301679 30 18120100730546025515
20554085 129 18055051200337899097
21033648 29 18196383524135921217
22182313 1 17917726703174713038
23559900 14 18269544086938997208
25147074 1 17968388951792260844
3383291 50 18411979183325927075
4073 2 18413385432974917522
4403749 210 18057869411995715352
484985 159 18261661666973698311
5080951 261 18117249589061382206
508706 21 18342739628398564302
5364581 5 18126267861227993072
5486654 36 18261109720356880024
58260988 114 16877954862277034155
59755656 520 18337379458069148541
7970288 3 17898008186012334522

> <PUBCHEM_SHAPE_MULTIPOLES>
556.98
12.27
4.34
1.56
16
2.42
-0.23
-0.91
-4.43
-8.33
0.5
0.26
0.32
0.76

> <PUBCHEM_SHAPE_SELFOVERLAP>
1199.349

> <PUBCHEM_SHAPE_VOLUME>
310.4

> <PUBCHEM_COORDINATE_TYPE>
2
5
10

$$$$
118662986
  -OEChem-05102415123D

 53 55  0     1  0  0  0  0  0999 V2000
    3.9580   -5.0380    1.0001 F   0  0  0  0  0  0  0  0  0  0  0  0
    2.1387    3.0309   -1.5684 O   0  0  0  0  0  0  0  0  0  0  0  0
    0.8166    1.6264    1.8954 O   0  0  0  0  0  0  0  0  0  0  0  0
   -3.1384   -1.4802   -1.1954 O   0  0  0  0  0  0  0  0  0  0  0  0
    1.2240    0.8638   -0.2561 N   0  0  0  0  0  0  0  0  0  0  0  0
    3.8852    3.2632   -0.0663 N   0  0  0  0  0  0  0  0  0  0  0  0
   -7.2640    0.1722   -0.1640 N   0  0  0  0  0  0  0  0  0  0  0  0
   -7.1661   -1.1043    0.2447 N   0  0  0  0  0  0  0  0  0  0  0  0
    2.6510    1.0948   -0.2483 C   0  0  1  0  0  0  0  0  0  0  0  0
    3.3746    0.1250   -1.1906 C   0  0  0  0  0  0  0  0  0  0  0  0
    3.5306   -1.2570   -0.6036 C   0  0  0  0  0  0  0  0  0  0  0  0
    2.8707    2.5395   -0.7022 C   0  0  0  0  0  0  0  0  0  0  0  0
    0.4189    1.1544    0.8336 C   0  0  0  0  0  0  0  0  0  0  0  0
   -1.0232    0.8343    0.6765 C   0  0  0  0  0  0  0  0  0  0  0  0
    2.5426   -2.2192   -0.8130 C   0  0  0  0  0  0  0  0  0  0  0  0
    4.6629   -1.5721    0.1478 C   0  0  0  0  0  0  0  0  0  0  0  0
   -3.7315    0.2314    0.3847 C   0  0  0  0  0  0  0  0  0  0  0  0
   -1.4219   -0.1815   -0.1923 C   0  0  0  0  0  0  0  0  0  0  0  0
   -2.7760   -0.4830   -0.3383 C   0  0  0  0  0  0  0  0  0  0  0  0
   -1.9787    1.5487    1.3994 C   0  0  0  0  0  0  0  0  0  0  0  0
    4.7465    2.6754    0.9568 C   0  0  0  0  0  0  0  0  0  0  0  0
    4.1629    4.6612   -0.3745 C   0  0  0  0  0  0  0  0  0  0  0  0
   -3.3327    1.2475    1.2533 C   0  0  0  0  0  0  0  0  0  0  0  0
    2.6869   -3.4964   -0.2710 C   0  0  0  0  0  0  0  0  0  0  0  0
    4.8070   -2.8491    0.6901 C   0  0  0  0  0  0  0  0  0  0  0  0
   -5.1325   -0.0642    0.2506 C   0  0  0  0  0  0  0  0  0  0  0  0
    3.8189   -3.8114    0.4806 C   0  0  0  0  0  0  0  0  0  0  0  0
   -6.0742    0.8391   -0.1785 C   0  0  0  0  0  0  0  0  0  0  0  0
   -5.8618   -1.2429    0.4965 C   0  0  0  0  0  0  0  0  0  0  0  0
   -3.3948   -1.1086   -2.5476 C   0  0  0  0  0  0  0  0  0  0  0  0
    2.9845    0.9584    0.7838 H   0  0  0  0  0  0  0  0  0  0  0  0
    4.3732    0.5116   -1.4354 H   0  0  0  0  0  0  0  0  0  0  0  0
    2.8543    0.0570   -2.1559 H   0  0  0  0  0  0  0  0  0  0  0  0
    0.8060    0.5806   -1.1365 H   0  0  0  0  0  0  0  0  0  0  0  0
    1.6566   -1.9875   -1.3981 H   0  0  0  0  0  0  0  0  0  0  0  0
    5.4400   -0.8322    0.3185 H   0  0  0  0  0  0  0  0  0  0  0  0
   -0.7021   -0.7769   -0.7471 H   0  0  0  0  0  0  0  0  0  0  0  0
   -1.6874    2.3457    2.0785 H   0  0  0  0  0  0  0  0  0  0  0  0
    5.6530    3.2760    1.0794 H   0  0  0  0  0  0  0  0  0  0  0  0
    4.1972    2.6537    1.9024 H   0  0  0  0  0  0  0  0  0  0  0  0
    5.0461    1.6633    0.6785 H   0  0  0  0  0  0  0  0  0  0  0  0
    4.0741    5.2501    0.5429 H   0  0  0  0  0  0  0  0  0  0  0  0
    5.1789    4.7412   -0.7717 H   0  0  0  0  0  0  0  0  0  0  0  0
    3.4594    5.0469   -1.1167 H   0  0  0  0  0  0  0  0  0  0  0  0
   -4.0603    1.8147    1.8294 H   0  0  0  0  0  0  0  0  0  0  0  0
    1.9180   -4.2458   -0.4343 H   0  0  0  0  0  0  0  0  0  0  0  0
    5.6883   -3.0949    1.2751 H   0  0  0  0  0  0  0  0  0  0  0  0
   -6.0134    1.8731   -0.4889 H   0  0  0  0  0  0  0  0  0  0  0  0
   -5.5011   -2.1990    0.8493 H   0  0  0  0  0  0  0  0  0  0  0  0
   -8.1776    0.5255   -0.4197 H   0  0  0  0  0  0  0  0  0  0  0  0
   -3.7197   -1.9999   -3.0913 H   0  0  0  0  0  0  0  0  0  0  0  0
   -2.4824   -0.7270   -3.0168 H   0  0  0  0  0  0  0  0  0  0  0  0
   -4.1875   -0.3565   -2.6062 H   0  0  0  0  0  0  0  0  0  0  0  0
  1 27  1  0  0  0  0
  2 12  2  0  0  0  0
  3 13  2  0  0  0  0
  4 19  1  0  0  0  0
  4 30  1  0  0  0  0
  5  9  1  0  0  0  0
  5 13  1  0  0  0  0
  5 34  1  0  0  0  0
  6 12  1  0  0  0  0
  6 21  1  0  0  0  0
  6 22  1  0  0  0  0
  7  8  1  0  0  0  0
  7 28  1  0  0  0  0
  7 50  1  0  0  0  0
  8 29  2  0  0  0  0
  9 10  1  0  0  0  0
  9 12  1  0  0  0  0
  9 31  1  0  0  0  0
 10 11  1  0  0  0  0
 10 32  1  0  0  0  0
 10 33  1  0  0  0  0
 11 15  2  0  0  0  0
 11 16  1  0  0  0  0
 13 14  1  0  0  0  0
 14 18  2  0  0  0  0
 14 20  1  0  0  0  0
 15 24  1  0  0  0  0
 15 35  1  0  0  0  0
 16 25  2  0  0  0  0
 16 36  1  0  0  0  0
 17 19  2  0  0  0  0
 17 23  1  0  0  0  0
 17 26  1  0  0  0  0
 18 19  1  0  0  0  0
 18 37  1  0  0  0  0
 20 23  2  0  0  0  0
 20 38  1  0  0  0  0
 21 39  1  0  0  0  0
 21 40  1  0  0  0  0
 21 41  1  0  0  0  0
 22 42  1  0  0  0  0
 22 43  1  0  0  0  0
 22 44  1  0  0  0  0
 23 45  1  0  0  0  0
 24 27  2  0  0  0  0
 24 46  1  0  0  0  0
 25 27  1  0  0  0  0
 25 47  1  0  0  0  0
 26 28  2  0  0  0  0
 26 29  1  0  0  0  0
 28 48  1  0  0  0  0
 29 49  1  0  0  0  0
 30 51  1  0  0  0  0
 30 52  1  0  0  0  0
 30 53  1  0  0  0  0
M  END
> <PUBCHEM_COMPOUND_CID>
118662986

> <PUBCHEM_CONFORMER_RMSD>
1

> <PUBCHEM_CONFORMER_DIVERSEORDER>
2
8
11
28
46
4
23
26
50
21
36
6
13
18
54
35
12
45
33
44
37
9
7
47
31
42
19
43
29
32
40
30
51
15
10
24
1
52
20
38
48
34
53
16
5
41
25
17
14
22
27
3
49
39

> <PUBCHEM_MMFF94_PARTIAL_CHARGES>
41
1 -0.19
10 0.14
11 -0.14
12 0.57
13 0.54
14 0.09
15 -0.15
16 -0.15
17 0.05
18 -0.15
19 0.08
2 -0.57
20 -0.15
21 0.3
22 0.3
23 -0.15
24 -0.15
25 -0.15
26 -0.05
27 0.19
28 -0.3
29 0.14
3 -0.57
30 0.28
34 0.37
35 0.15
36 0.15
37 0.15
38 0.15
4 -0.36
45 0.15
46 0.15
47 0.15
48 0.15
49 0.15
5 -0.73
50 0.27
6 -0.66
7 0.3
8 -0.71
9 0.36

> <PUBCHEM_EFFECTIVE_ROTOR_COUNT>
9

> <PUBCHEM_PHARMACOPHORE_FEATURES>
9
1 2 acceptor
1 3 acceptor
1 4 acceptor
1 5 donor
1 7 donor
1 8 acceptor
5 7 8 26 28 29 rings
6 11 15 16 24 25 27 rings
6 14 17 18 19 20 23 rings

> <PUBCHEM_HEAVY_ATOM_COUNT>
30

> <PUBCHEM_ATOM_DEF_STEREO_COUNT>
1

> <PUBCHEM_ATOM_UDEF_STEREO_COUNT>
0

> <PUBCHEM_BOND_DEF_STEREO_COUNT>
0

> <PUBCHEM_BOND_UDEF_STEREO_COUNT>
0

> <PUBCHEM_ISOTOPIC_ATOM_COUNT>
0

> <PUBCHEM_COMPONENT_COUNT>
1

> <PUBCHEM_CACTVS_TAUTO_COUNT>
18

> <PUBCHEM_CONFORMER_ID>
0712A74A00000002

> <PUBCHEM_MMFF94_ENERGY>
89.3632

> <PUBCHEM_FEATURE_SELFOVERLAP>
45.673

> <PUBCHEM_SHAPE_FINGERPRINT>
11135609 149 18189034431238062252
11135926 11 18267010829470388812
11719270 70 18338234985558396800
11963148 33 18125154099125782959
12107183 9 18053112718050814481
12788726 201 17203062836870726113
13533116 47 18409454673882780651
13782708 43 17894633643662091347
13955234 65 18410296942961058344
14347332 77 18339362959997558313
14675020 138 18199460138465091464
14910302 57 17603585236177008495
15183329 4 18201729414568833513
17857418 61 18272090453253402195
1813 80 18190176785402090050
18681886 176 17417824911501733924
19319366 153 18270964677351705718
19427546 62 18049727609717539196
20511986 3 17846207912346471308
21049683 118 17699549640713945416
21315759 148 18042133201579128283
21703447 108 18343021077858945056
21814621 53 17967819319613349641
23522609 53 17772781414428515609
23559900 14 18408888451027156001
3004659 81 18131079220334975789
4073 2 18264775548433181155
4149490 64 18261392303567041859
46194498 28 17894632564817789020
5104073 3 18131361782608254537
513532 50 17821726143872227880
6025842 7 18410861001079449212
6695519 79 17690590857781214897
67856867 119 18342176669670273328
70251023 43 18261394399400493896
9981440 41 18048879890494146688

> <PUBCHEM_SHAPE_MULTIPOLES>
572.58
15.45
5.13
1.41
23.38
0.95
-0.4
3.67
0.56
-13.26
0.44
0.36
-0.08
-1.93

> <PUBCHEM_SHAPE_SELFOVERLAP>
1228.002

> <PUBCHEM_SHAPE_VOLUME>
318.6

> <PUBCHEM_COORDINATE_TYPE>
2
5
10

$$$$
118662915
  -OEChem-05102415123D

 44 46  0     1  0  0  0  0  0999 V2000
    4.1277    2.1416   -0.0671 O   0  0  0  0  0  0  0  0  0  0  0  0
   -0.9179    1.6973    0.0611 O   0  0  0  0  0  0  0  0  0  0  0  0
   -1.2576   -0.3914   -0.8871 N   0  0  0  0  0  0  0  0  0  0  0  0
    7.0745   -1.3359   -0.2640 N   0  0  0  0  0  0  0  0  0  0  0  0
    7.2568   -0.6442    0.8738 N   0  0  0  0  0  0  0  0  0  0  0  0
   -3.6458   -3.3765    0.0986 N   0  0  0  0  0  0  0  0  0  0  0  0
   -3.4950   -0.7427    0.1133 C   0  0  1  0  0  0  0  0  0  0  0  0
   -2.6811   -0.2519   -1.0945 C   0  0  0  0  0  0  0  0  0  0  0  0
   -4.8788   -0.1190    0.1845 C   0  0  0  0  0  0  0  0  0  0  0  0
    0.9640    0.3225   -0.1968 C   0  0  0  0  0  0  0  0  0  0  0  0
    3.6909   -0.2199    0.0345 C   0  0  0  0  0  0  0  0  0  0  0  0
   -0.4575    0.6049   -0.3155 C   0  0  0  0  0  0  0  0  0  0  0  0
    3.2487    1.0988   -0.0721 C   0  0  0  0  0  0  0  0  0  0  0  0
    1.8852    1.3699   -0.1878 C   0  0  0  0  0  0  0  0  0  0  0  0
    1.4063   -0.9962   -0.0902 C   0  0  0  0  0  0  0  0  0  0  0  0
    2.7697   -1.2674    0.0252 C   0  0  0  0  0  0  0  0  0  0  0  0
    5.0917   -0.5217    0.1564 C   0  0  0  0  0  0  0  0  0  0  0  0
   -5.5709    0.1784   -0.9895 C   0  0  0  0  0  0  0  0  0  0  0  0
   -5.4567    0.1564    1.4238 C   0  0  0  0  0  0  0  0  0  0  0  0
   -3.5810   -2.2178    0.1039 C   0  0  0  0  0  0  0  0  0  0  0  0
   -6.8412    0.7511   -0.9242 C   0  0  0  0  0  0  0  0  0  0  0  0
   -6.7270    0.7291    1.4891 C   0  0  0  0  0  0  0  0  0  0  0  0
    5.7951   -1.2943   -0.7352 C   0  0  0  0  0  0  0  0  0  0  0  0
    6.0422   -0.1491    1.1257 C   0  0  0  0  0  0  0  0  0  0  0  0
   -7.4194    1.0262    0.3151 C   0  0  0  0  0  0  0  0  0  0  0  0
    3.5770    3.4516   -0.1812 C   0  0  0  0  0  0  0  0  0  0  0  0
   -2.9567   -0.4405    1.0229 H   0  0  0  0  0  0  0  0  0  0  0  0
   -2.9253   -0.8069   -2.0083 H   0  0  0  0  0  0  0  0  0  0  0  0
   -2.8731    0.8104   -1.2882 H   0  0  0  0  0  0  0  0  0  0  0  0
   -0.8366   -1.2466   -1.2337 H   0  0  0  0  0  0  0  0  0  0  0  0
    1.4868    2.3743   -0.2803 H   0  0  0  0  0  0  0  0  0  0  0  0
    0.7223   -1.8392   -0.0593 H   0  0  0  0  0  0  0  0  0  0  0  0
    3.0920   -2.3020    0.1189 H   0  0  0  0  0  0  0  0  0  0  0  0
   -5.1568   -0.0393   -1.9693 H   0  0  0  0  0  0  0  0  0  0  0  0
   -4.9293   -0.0714    2.3463 H   0  0  0  0  0  0  0  0  0  0  0  0
   -7.3822    0.9791   -1.8380 H   0  0  0  0  0  0  0  0  0  0  0  0
   -7.1774    0.9429    2.4539 H   0  0  0  0  0  0  0  0  0  0  0  0
    5.5144   -1.8083   -1.6441 H   0  0  0  0  0  0  0  0  0  0  0  0
    5.9043    0.4618    2.0069 H   0  0  0  0  0  0  0  0  0  0  0  0
   -8.4089    1.4709    0.3661 H   0  0  0  0  0  0  0  0  0  0  0  0
    7.8700   -1.8149   -0.6671 H   0  0  0  0  0  0  0  0  0  0  0  0
    3.0724    3.5973   -1.1426 H   0  0  0  0  0  0  0  0  0  0  0  0
    2.9366    3.6985    0.6725 H   0  0  0  0  0  0  0  0  0  0  0  0
    4.4164    4.1547   -0.1576 H   0  0  0  0  0  0  0  0  0  0  0  0
  1 13  1  0  0  0  0
  1 26  1  0  0  0  0
  2 12  2  0  0  0  0
  3  8  1  0  0  0  0
  3 12  1  0  0  0  0
  3 30  1  0  0  0  0
  4  5  1  0  0  0  0
  4 23  1  0  0  0  0
  4 41  1  0  0  0  0
  5 24  2  0  0  0  0
  6 20  3  0  0  0  0
  7  8  1  0  0  0  0
  7  9  1  0  0  0  0
  7 20  1  0  0  0  0
  7 27  1  0  0  0  0
  8 28  1  0  0  0  0
  8 29  1  0  0  0  0
  9 18  2  0  0  0  0
  9 19  1  0  0  0  0
 10 12  1  0  0  0  0
 10 14  2  0  0  0  0
 10 15  1  0  0  0  0
 11 13  2  0  0  0  0
 11 16  1  0  0  0  0
 11 17  1  0  0  0  0
 13 14  1  0  0  0  0
 14 31  1  0  0  0  0
 15 16  2  0  0  0  0
 15 32  1  0  0  0  0
 16 33  1  0  0  0  0
 17 23  2  0  0  0  0
 17 24  1  0  0  0  0
 18 21  1  0  0  0  0
 18 34  1  0  0  0  0
 19 22  2  0  0  0  0
 19 35  1  0  0  0  0
 21 25  2  0  0  0  0
 21 36  1  0  0  0  0
 22 25  1  0  0  0  0
 22 37  1  0  0  0  0
 23 38  1  0  0  0  0
 24 39  1  0  0  0  0
 25 40  1  0  0  0  0
 26 42  1  0  0  0  0
 26 43  1  0  0  0  0
 26 44  1  0  0  0  0
M  END
> <PUBCHEM_COMPOUND_CID>
118662915

> <PUBCHEM_CONFORMER_RMSD>
0.8

> <PUBCHEM_CONFORMER_DIVERSEORDER>
4
147
118
72
14
101
160
65
58
77
121
141
103
84
51
89
133
130
107
31
120
149
9
60
128
21
105
78
152
124
116
164
96
122
36
19
161
153
117
45
143
43
29
67
83
154
156
1
132
136
159
87
111
125
57
38
163
32
56
113
63
90
93
110
126
155
34
150
68
97
2
139
166
94
39
146
79
106
17
54
26
104
91
64
66
165
162
138
15
69
7
85
145
123
22
48
135
95
24
62
59
5
82
144
20
41
115
140
108
52
81
98
109
151
70
80
28
42
129
23
134
114
27
40
11
99
75
119
53
127
49
92
61
158
112
55
12
33
137
131
142
148
46
18
44
13
30
74
71
47
157
86
50
37
16
88
10
100
76
25
102
35
73
8
6
3

> <PUBCHEM_MMFF94_PARTIAL_CHARGES>
38
1 -0.36
10 0.09
11 0.05
12 0.54
13 0.08
14 -0.15
15 -0.15
16 -0.15
17 -0.05
18 -0.15
19 -0.15
2 -0.57
20 0.36
21 -0.15
22 -0.15
23 -0.3
24 0.14
25 -0.15
26 0.28
3 -0.73
30 0.37
31 0.15
32 0.15
33 0.15
34 0.15
35 0.15
36 0.15
37 0.15
38 0.15
39 0.15
4 0.3
40 0.15
41 0.27
5 -0.71
6 -0.56
7 0.34
8 0.3
9 -0.14

> <PUBCHEM_EFFECTIVE_ROTOR_COUNT>
7

> <PUBCHEM_PHARMACOPHORE_FEATURES>
9
1 1 acceptor
1 2 acceptor
1 3 donor
1 4 donor
1 5 acceptor
1 6 acceptor
5 4 5 17 23 24 rings
6 10 11 13 14 15 16 rings
6 9 18 19 21 22 25 rings

> <PUBCHEM_HEAVY_ATOM_COUNT>
26

> <PUBCHEM_ATOM_DEF_STEREO_COUNT>
0

> <PUBCHEM_ATOM_UDEF_STEREO_COUNT>
1

> <PUBCHEM_BOND_DEF_STEREO_COUNT>
0

> <PUBCHEM_BOND_UDEF_STEREO_COUNT>
0

> <PUBCHEM_ISOTOPIC_ATOM_COUNT>
0

> <PUBCHEM_COMPONENT_COUNT>
1

> <PUBCHEM_CACTVS_TAUTO_COUNT>
18

> <PUBCHEM_CONFORMER_ID>
0712A70300000004

> <PUBCHEM_MMFF94_ENERGY>
72.5075

> <PUBCHEM_FEATURE_SELFOVERLAP>
45.673

> <PUBCHEM_SHAPE_FINGERPRINT>
10299344 5 14418137301108110249
11089746 13 17060334137141445969
11101153 10 9655574123906825283
11315181 36 17632855343872979275
11475781 23 14620527675014097753
12107183 9 18412267224758572123
12166972 35 11963396236548796718
12236239 1 17775564251585545167
12616971 3 18342735251663092988
14123256 10 8862938377628088795
14251764 18 18060418023792539253
14341114 176 18334015012100789765
14856354 85 15430044253815433147
15131766 46 15265057126698700880
15142383 8 17989205932763771584
15183329 4 18409165494067063411
15348495 7 18187368791491939521
15352257 5 15791732988200676755
15361156 5 17968667119417124527
15419008 47 17676764305699329925
15461852 350 15913041049594745861
15537594 2 17676200265003251203
18335252 98 10375863100604778117
19489759 90 16415760817546865091
21267235 1 18410576142290637726
21315763 28 18411698803480967693
21403212 168 18410012101415666035
21792961 116 17896028859255423950
22224240 67 17561356271371521414
23035841 295 18186801374392910186
23081809 10 18130786819172545285
23522609 53 17970094251235129516
23559900 14 18411130376748009360
249057 3 18409167714095676559
2838139 119 17418092105801895025
3004659 81 18260544532809776248
3178227 256 18187364320821315946
335352 9 18410292514522657198
350125 39 18410292532298858844
4073 2 18042126612524491178
5104073 3 18337389473315347275
5381727 24 18412262832141190803
559249 180 18411135862191801783
59755656 215 18336546019311912254
59755656 520 16660363697215726883
7226269 152 18059857225897470873

> <PUBCHEM_SHAPE_MULTIPOLES>
503.41
21.56
2.38
1.03
4.76
0.36
-0.16
-0.58
-3.76
-1.16
0.09
1.05
0.04
-0.18

> <PUBCHEM_SHAPE_SELFOVERLAP>
1090.065

> <PUBCHEM_SHAPE_VOLUME>
274

> <PUBCHEM_COORDINATE_TYPE>
2
5
10

$$$$
90354191
  -OEChem-05102415123D

 43 45  0     0  0  0  0  0  0999 V2000
    2.3247   -1.9895    0.5356 O   0  0  0  0  0  0  0  0  0  0  0  0
   -1.6685    1.5537    1.6647 O   0  0  0  0  0  0  0  0  0  0  0  0
   -2.0739    1.2466   -0.6168 N   0  0  0  0  0  0  0  0  0  0  0  0
    6.2617   -0.1459   -0.8467 N   0  0  0  0  0  0  0  0  0  0  0  0
    6.4050   -0.6616    0.3860 N   0  0  0  0  0  0  0  0  0  0  0  0
   -3.4972    1.5743   -0.5681 C   0  0  0  0  0  0  0  0  0  0  0  0
    0.1506    0.9413    0.4005 C   0  0  0  0  0  0  0  0  0  0  0  0
    2.8587    0.3214    0.1454 C   0  0  0  0  0  0  0  0  0  0  0  0
   -1.2612    1.2646    0.5317 C   0  0  0  0  0  0  0  0  0  0  0  0
   -4.3413    0.3696   -0.2678 C   0  0  0  0  0  0  0  0  0  0  0  0
    1.9330   -0.6899    0.4028 C   0  0  0  0  0  0  0  0  0  0  0  0
    0.5790   -0.3799    0.5304 C   0  0  0  0  0  0  0  0  0  0  0  0
    1.0763    1.9526    0.1432 C   0  0  0  0  0  0  0  0  0  0  0  0
    2.4304    1.6427    0.0158 C   0  0  0  0  0  0  0  0  0  0  0  0
    4.2590    0.0238    0.0085 C   0  0  0  0  0  0  0  0  0  0  0  0
   -1.5514    0.9001   -1.9312 C   0  0  0  0  0  0  0  0  0  0  0  0
   -4.8268   -0.4193   -1.3107 C   0  0  0  0  0  0  0  0  0  0  0  0
   -4.6402    0.0394    1.0542 C   0  0  0  0  0  0  0  0  0  0  0  0
    4.9954    0.2792   -1.1226 C   0  0  0  0  0  0  0  0  0  0  0  0
    5.1783   -0.5554    0.9037 C   0  0  0  0  0  0  0  0  0  0  0  0
   -5.6111   -1.5387   -1.0316 C   0  0  0  0  0  0  0  0  0  0  0  0
   -5.4245   -1.0799    1.3332 C   0  0  0  0  0  0  0  0  0  0  0  0
   -5.9097   -1.8691    0.2903 C   0  0  0  0  0  0  0  0  0  0  0  0
    2.3539   -2.7800   -0.6505 C   0  0  0  0  0  0  0  0  0  0  0  0
   -3.8007    2.0462   -1.5104 H   0  0  0  0  0  0  0  0  0  0  0  0
   -3.6524    2.3284    0.2137 H   0  0  0  0  0  0  0  0  0  0  0  0
   -0.1404   -1.1704    0.7314 H   0  0  0  0  0  0  0  0  0  0  0  0
    0.7534    2.9854    0.0404 H   0  0  0  0  0  0  0  0  0  0  0  0
    3.1352    2.4473   -0.1808 H   0  0  0  0  0  0  0  0  0  0  0  0
   -1.7787    1.7152   -2.6254 H   0  0  0  0  0  0  0  0  0  0  0  0
   -0.4746    0.7334   -1.9510 H   0  0  0  0  0  0  0  0  0  0  0  0
   -2.0415   -0.0142   -2.2769 H   0  0  0  0  0  0  0  0  0  0  0  0
   -4.6045   -0.1714   -2.3451 H   0  0  0  0  0  0  0  0  0  0  0  0
   -4.2739    0.6462    1.8774 H   0  0  0  0  0  0  0  0  0  0  0  0
    4.7446    0.7129   -2.0808 H   0  0  0  0  0  0  0  0  0  0  0  0
    5.0097   -0.9053    1.9125 H   0  0  0  0  0  0  0  0  0  0  0  0
   -5.9898   -2.1527   -1.8436 H   0  0  0  0  0  0  0  0  0  0  0  0
   -5.6581   -1.3366    2.3623 H   0  0  0  0  0  0  0  0  0  0  0  0
   -6.5206   -2.7404    0.5075 H   0  0  0  0  0  0  0  0  0  0  0  0
    7.0732   -0.1149   -1.4511 H   0  0  0  0  0  0  0  0  0  0  0  0
    2.7296   -3.7734   -0.3901 H   0  0  0  0  0  0  0  0  0  0  0  0
    3.0193   -2.3413   -1.4002 H   0  0  0  0  0  0  0  0  0  0  0  0
    1.3452   -2.8855   -1.0624 H   0  0  0  0  0  0  0  0  0  0  0  0
  1 11  1  0  0  0  0
  1 24  1  0  0  0  0
  2  9  2  0  0  0  0
  3  6  1  0  0  0  0
  3  9  1  0  0  0  0
  3 16  1  0  0  0  0
  4  5  1  0  0  0  0
  4 19  1  0  0  0  0
  4 40  1  0  0  0  0
  5 20  2  0  0  0  0
  6 10  1  0  0  0  0
  6 25  1  0  0  0  0
  6 26  1  0  0  0  0
  7  9  1  0  0  0  0
  7 12  2  0  0  0  0
  7 13  1  0  0  0  0
  8 11  2  0  0  0  0
  8 14  1  0  0  0  0
  8 15  1  0  0  0  0
 10 17  2  0  0  0  0
 10 18  1  0  0  0  0
 11 12  1  0  0  0  0
 12 27  1  0  0  0  0
 13 14  2  0  0  0  0
 13 28  1  0  0  0  0
 14 29  1  0  0  0  0
 15 19  2  0  0  0  0
 15 20  1  0  0  0  0
 16 30  1  0  0  0  0
 16 31  1  0  0  0  0
 16 32  1  0  0  0  0
 17 21  1  0  0  0  0
 17 33  1  0  0  0  0
 18 22  2  0  0  0  0
 18 34  1  0  0  0  0
 19 35  1  0  0  0  0
 20 36  1  0  0  0  0
 21 23  2  0  0  0  0
 21 37  1  0  0  0  0
 22 23  1  0  0  0  0
 22 38  1  0  0  0  0
 23 39  1  0  0  0  0
 24 41  1  0  0  0  0
 24 42  1  0  0  0  0
 24 43  1  0  0  0  0
M  END
> <PUBCHEM_COMPOUND_CID>
90354191

> <PUBCHEM_CONFORMER_RMSD>
0.8

> <PUBCHEM_CONFORMER_DIVERSEORDER>
1
75
78
81
80
86
43
54
29
36
82
23
88
68
14
42
10
50
31
71
63
45
15
26
18
19
37
67
70
60
48
13
49
73
74
87
83
47
33
44
16
46
41
85
9
8
39
61
17
30
5
89
69
40
58
72
21
52
62
53
66
2
4
28
7
57
77
76
65
55
38
3
11
64
84
12
22
20
27
6
79
51
32
35
24
56
59
34
25

> <PUBCHEM_MMFF94_PARTIAL_CHARGES>
35
1 -0.36
10 -0.14
11 0.08
12 -0.15
13 -0.15
14 -0.15
15 -0.05
16 0.3
17 -0.15
18 -0.15
19 -0.3
2 -0.57
20 0.14
21 -0.15
22 -0.15
23 -0.15
24 0.28
27 0.15
28 0.15
29 0.15
3 -0.66
33 0.15
34 0.15
35 0.15
36 0.15
37 0.15
38 0.15
39 0.15
4 0.3
40 0.27
5 -0.71
6 0.44
7 0.09
8 0.05
9 0.54

> <PUBCHEM_EFFECTIVE_ROTOR_COUNT>
6

> <PUBCHEM_PHARMACOPHORE_FEATURES>
7
1 1 acceptor
1 2 acceptor
1 4 donor
1 5 acceptor
5 4 5 15 19 20 rings
6 10 17 18 21 22 23 rings
6 7 8 11 12 13 14 rings

> <PUBCHEM_HEAVY_ATOM_COUNT>
24

> <PUBCHEM_ATOM_DEF_STEREO_COUNT>
0

> <PUBCHEM_ATOM_UDEF_STEREO_COUNT>
0

> <PUBCHEM_BOND_DEF_STEREO_COUNT>
0

> <PUBCHEM_BOND_UDEF_STEREO_COUNT>
0

> <PUBCHEM_ISOTOPIC_ATOM_COUNT>
0

> <PUBCHEM_COMPONENT_COUNT>
1

> <PUBCHEM_CACTVS_TAUTO_COUNT>
4

> <PUBCHEM_CONFORMER_ID>
0562B20F00000001

> <PUBCHEM_MMFF94_ENERGY>
77.9556

> <PUBCHEM_FEATURE_SELFOVERLAP>
35.522

> <PUBCHEM_SHAPE_FINGERPRINT>
10 15 12895072950836507367
11488393 25 17915471493046978342
11963148 33 18408315588675435082
12166972 35 18333453149312359292
12236239 1 17989208148508402128
12596602 18 16773513373678154835
12633257 1 17203051906695804959
13103583 49 17274550910040248483
13288520 33 18408603669690661061
13782708 43 17822289050981503514
13862211 1 18409727348872331146
14251764 18 11887949965190950517
14576447 43 18411976953572710024
14849402 71 17416960819637266616
15142383 8 13110970794882338802
15183329 4 15502366820748192504
15188451 53 15482097402175317845
15238133 3 11312057690231691626
15537594 2 18060134336654931735
17349148 13 18335423460768196336
17780758 139 16917071075299358243
200 152 18411139130023402921
20028762 73 18131632317929209166
20281389 69 11455888066056948987
21054139 6 18410009936114033774
21150785 3 18114188557891693612
21267235 1 18412831299718968705
21315759 148 16271931540431804631
21344244 181 17560534936676560822
21521721 280 18201720708564571408
21618674 57 12535624972928066548
23402539 116 16153426121339617053
23522609 53 18120406278271481133
23559900 14 18189047763228667753
23569917 315 18336831901696078970
2767999 5 10665223769791792783
2838139 119 8574714581408972755
351380 3 18202281424781414703
3737641 26 17846225388547260863
4015057 19 17095817588983282716
4325135 7 18259985963559557718
4340502 62 15410896250127494436
439807 62 17968094244585852315
4938544 92 17489035864464544721
5104073 3 18058166112193790386
59755656 215 18411423895446637798
6431902 208 18411138048119087459
6913067 236 17821722828041248580
7226269 152 11383838164474474159
7495541 125 18186799192976915188

> <PUBCHEM_SHAPE_MULTIPOLES>
467.23
15.58
2.12
1.32
0.6
0.67
0.19
7.05
0.76
-0.47
0.08
-1.02
-0.08
0.05

> <PUBCHEM_SHAPE_SELFOVERLAP>
1013.425

> <PUBCHEM_SHAPE_VOLUME>
257.2

> <PUBCHEM_COORDINATE_TYPE>
2
5
10

$$$$
118662956
  -OEChem-05102415123D

 46 48  0     1  0  0  0  0  0999 V2000
   -4.0254   -1.6271    1.1013 O   0  0  0  0  0  0  0  0  0  0  0  0
    0.6496   -2.9840   -0.3354 O   0  0  0  0  0  0  0  0  0  0  0  0
    4.4432    3.0067    0.2864 O   0  0  0  0  0  0  0  0  0  0  0  0
    1.7142   -0.9333   -0.5306 N   0  0  0  0  0  0  0  0  0  0  0  0
    3.8004    0.8199   -0.1484 N   0  0  0  0  0  0  0  0  0  0  0  0
   -5.9438    2.4326    0.2962 N   0  0  0  0  0  0  0  0  0  0  0  0
   -6.6437    1.4647   -0.3199 N   0  0  0  0  0  0  0  0  0  0  0  0
    3.0591   -1.4519   -0.6381 C   0  0  2  0  0  0  0  0  0  0  0  0
    4.0661   -0.5002   -0.0292 C   0  0  0  0  0  0  0  0  0  0  0  0
   -0.7057   -1.0708   -0.3145 C   0  0  0  0  0  0  0  0  0  0  0  0
    3.3873   -1.8001   -2.0885 C   0  0  0  0  0  0  0  0  0  0  0  0
   -3.1746    0.2213   -0.1782 C   0  0  0  0  0  0  0  0  0  0  0  0
    0.5819   -1.7431   -0.3844 C   0  0  0  0  0  0  0  0  0  0  0  0
   -3.0029   -1.0211    0.4324 C   0  0  0  0  0  0  0  0  0  0  0  0
   -1.7685   -1.6671    0.3642 C   0  0  0  0  0  0  0  0  0  0  0  0
   -0.8774    0.1717   -0.9252 C   0  0  0  0  0  0  0  0  0  0  0  0
   -2.1118    0.8175   -0.8571 C   0  0  0  0  0  0  0  0  0  0  0  0
   -4.4382    0.9054   -0.1185 C   0  0  0  0  0  0  0  0  0  0  0  0
    5.1848   -1.0116    0.6084 C   0  0  0  0  0  0  0  0  0  0  0  0
    6.0890   -0.1101    1.1593 C   0  0  0  0  0  0  0  0  0  0  0  0
    4.7017    1.6657    0.3992 C   0  0  0  0  0  0  0  0  0  0  0  0
   -4.6181    2.1467    0.4415 C   0  0  0  0  0  0  0  0  0  0  0  0
   -5.7186    0.5344   -0.5708 C   0  0  0  0  0  0  0  0  0  0  0  0
    5.8501    1.2558    1.0570 C   0  0  0  0  0  0  0  0  0  0  0  0
   -3.7499   -2.8955    1.6911 C   0  0  0  0  0  0  0  0  0  0  0  0
    3.2511    3.3733   -0.3982 C   0  0  0  0  0  0  0  0  0  0  0  0
    3.0814   -2.3841   -0.0585 H   0  0  0  0  0  0  0  0  0  0  0  0
    1.6140    0.0764   -0.5418 H   0  0  0  0  0  0  0  0  0  0  0  0
    3.3549   -0.9087   -2.7259 H   0  0  0  0  0  0  0  0  0  0  0  0
    2.6687   -2.5211   -2.4931 H   0  0  0  0  0  0  0  0  0  0  0  0
    4.3889   -2.2351   -2.1742 H   0  0  0  0  0  0  0  0  0  0  0  0
   -1.5766   -2.6296    0.8257 H   0  0  0  0  0  0  0  0  0  0  0  0
   -0.0877    0.6569   -1.4912 H   0  0  0  0  0  0  0  0  0  0  0  0
   -2.2271    1.7805   -1.3496 H   0  0  0  0  0  0  0  0  0  0  0  0
    5.3641   -2.0788    0.6821 H   0  0  0  0  0  0  0  0  0  0  0  0
    6.9782   -0.4714    1.6670 H   0  0  0  0  0  0  0  0  0  0  0  0
   -3.9431    2.8413    0.9222 H   0  0  0  0  0  0  0  0  0  0  0  0
   -6.0203   -0.3737   -1.0737 H   0  0  0  0  0  0  0  0  0  0  0  0
    6.5454    1.9717    1.4815 H   0  0  0  0  0  0  0  0  0  0  0  0
   -6.4361    3.2658    0.5931 H   0  0  0  0  0  0  0  0  0  0  0  0
   -4.6723   -3.2290    2.1783 H   0  0  0  0  0  0  0  0  0  0  0  0
   -2.9894   -2.8213    2.4760 H   0  0  0  0  0  0  0  0  0  0  0  0
   -3.5036   -3.6495    0.9356 H   0  0  0  0  0  0  0  0  0  0  0  0
    3.1877    4.4655   -0.4030 H   0  0  0  0  0  0  0  0  0  0  0  0
    2.3664    2.9861    0.1185 H   0  0  0  0  0  0  0  0  0  0  0  0
    3.2750    3.0319   -1.4386 H   0  0  0  0  0  0  0  0  0  0  0  0
  1 14  1  0  0  0  0
  1 25  1  0  0  0  0
  2 13  2  0  0  0  0
  3 21  1  0  0  0  0
  3 26  1  0  0  0  0
  4  8  1  0  0  0  0
  4 13  1  0  0  0  0
  4 28  1  0  0  0  0
  5  9  2  0  0  0  0
  5 21  1  0  0  0  0
  6  7  1  0  0  0  0
  6 22  1  0  0  0  0
  6 40  1  0  0  0  0
  7 23  2  0  0  0  0
  8  9  1  0  0  0  0
  8 11  1  0  0  0  0
  8 27  1  0  0  0  0
  9 19  1  0  0  0  0
 10 13  1  0  0  0  0
 10 15  2  0  0  0  0
 10 16  1  0  0  0  0
 11 29  1  0  0  0  0
 11 30  1  0  0  0  0
 11 31  1  0  0  0  0
 12 14  2  0  0  0  0
 12 17  1  0  0  0  0
 12 18  1  0  0  0  0
 14 15  1  0  0  0  0
 15 32  1  0  0  0  0
 16 17  2  0  0  0  0
 16 33  1  0  0  0  0
 17 34  1  0  0  0  0
 18 22  2  0  0  0  0
 18 23  1  0  0  0  0
 19 20  2  0  0  0  0
 19 35  1  0  0  0  0
 20 24  1  0  0  0  0
 20 36  1  0  0  0  0
 21 24  2  0  0  0  0
 22 37  1  0  0  0  0
 23 38  1  0  0  0  0
 24 39  1  0  0  0  0
 25 41  1  0  0  0  0
 25 42  1  0  0  0  0
 25 43  1  0  0  0  0
 26 44  1  0  0  0  0
 26 45  1  0  0  0  0
 26 46  1  0  0  0  0
M  END
> <PUBCHEM_COMPOUND_CID>
118662956

> <PUBCHEM_CONFORMER_RMSD>
0.8

> <PUBCHEM_CONFORMER_DIVERSEORDER>
7
110
68
85
115
149
158
75
113
28
103
31
112
137
53
123
96
118
89
43
120
80
25
157
128
50
92
6
65
16
124
152
119
82
146
84
21
151
97
56
54
87
143
37
145
23
14
51
136
94
26
63
72
20
156
52
60
117
131
30
64
122
77
90
5
11
57
9
35
29
93
76
148
79
73
67
134
111
121
2
78
83
81
105
19
133
49
66
144
102
12
74
88
132
129
13
125
104
107
47
147
32
39
55
3
34
41
86
99
153
46
138
45
139
59
42
130
33
69
116
100
24
61
127
135
109
70
17
95
154
36
44
91
40
10
98
160
101
15
106
18
62
38
48
22
114
58
27
142
155
71
4
108
150
159
140
8
126
141
1

> <PUBCHEM_MMFF94_PARTIAL_CHARGES>
35
1 -0.36
10 0.09
12 0.05
13 0.54
14 0.08
15 -0.15
16 -0.15
17 -0.15
18 -0.05
19 -0.15
2 -0.57
20 -0.15
21 0.39
22 -0.3
23 0.14
24 -0.15
25 0.28
26 0.28
28 0.37
3 -0.36
32 0.15
33 0.15
34 0.15
35 0.15
36 0.15
37 0.15
38 0.15
39 0.15
4 -0.73
40 0.27
5 -0.62
6 0.3
7 -0.71
8 0.44
9 0.17

> <PUBCHEM_EFFECTIVE_ROTOR_COUNT>
7

> <PUBCHEM_PHARMACOPHORE_FEATURES>
10
1 1 acceptor
1 2 acceptor
1 3 acceptor
1 4 donor
1 5 acceptor
1 6 donor
1 7 acceptor
5 6 7 18 22 23 rings
6 10 12 14 15 16 17 rings
6 5 9 19 20 21 24 rings

> <PUBCHEM_HEAVY_ATOM_COUNT>
26

> <PUBCHEM_ATOM_DEF_STEREO_COUNT>
0

> <PUBCHEM_ATOM_UDEF_STEREO_COUNT>
1

> <PUBCHEM_BOND_DEF_STEREO_COUNT>
0

> <PUBCHEM_BOND_UDEF_STEREO_COUNT>
0

> <PUBCHEM_ISOTOPIC_ATOM_COUNT>
0

> <PUBCHEM_COMPONENT_COUNT>
1

> <PUBCHEM_CACTVS_TAUTO_COUNT>
115

> <PUBCHEM_CONFORMER_ID>
0712A72C00000007

> <PUBCHEM_MMFF94_ENERGY>
78.5788

> <PUBCHEM_FEATURE_SELFOVERLAP>
50.795

> <PUBCHEM_SHAPE_FINGERPRINT>
10 15 18113907065313068513
10319926 262 18260547827535392018
10763959 59 18343027679528906510
11045977 3 18334861614647710966
12107183 9 18337378367453436634
12403259 118 18339633555584627466
12403259 415 18341065067868269414
12422481 6 17748826323758865637
12633257 1 16950289511169386007
12925494 130 18410852205007870585
13402501 40 18411975845492759816
13668630 136 12324242720301357304
14251764 38 18410577313756867568
14739800 52 18263071141800360507
15238133 3 18334297596133435596
15348495 7 18260268581213671770
15840311 113 18057052311727414605
17810953 82 18412824707667447116
17844677 252 18336272339521326922
20157964 124 18059574650581035158
20715895 44 18341330011573542344
21033648 29 18272075137500005114
21315763 129 18411135852783682894
21315764 268 18334570205306338324
21641784 216 14548739461330113651
21859007 373 17459455668471778813
22122407 14 17846784013711260545
23559900 14 18189353280904995774
2838139 119 18340480093538461805
312425 54 17675918807490928346
34797466 226 17774725264801461095
3680242 22 18335983056615819144
4073 2 18187086187055127994
4144715 1 18261684760981109778
465052 167 12396300331687784066
474 4 18343864403208259950
5104073 3 18187363259442122194
5969126 39 18268705194871078999

> <PUBCHEM_SHAPE_MULTIPOLES>
497.54
16.46
3.37
1.21
1.89
0.97
0.1
9.24
-3.91
-0.13
-0.36
-0.53
-0.66
1.88

> <PUBCHEM_SHAPE_SELFOVERLAP>
1075.044

> <PUBCHEM_SHAPE_VOLUME>
274

> <PUBCHEM_COORDINATE_TYPE>
2
5
10

$$$$
90354569
  -OEChem-05102415123D

 42 45  0     0  0  0  0  0  0999 V2000
    5.0592   -1.7576    0.5251 S   0  0  0  0  0  0  0  0  0  0  0  0
   -3.6095    1.3859   -1.5749 O   0  0  0  0  0  0  0  0  0  0  0  0
    0.6489   -1.2970   -2.1585 O   0  0  0  0  0  0  0  0  0  0  0  0
    1.1353   -1.9366    0.0165 N   0  0  0  0  0  0  0  0  0  0  0  0
    3.2665   -0.0352   -0.1617 N   0  0  0  0  0  0  0  0  0  0  0  0
   -6.8933    0.1519    1.5474 N   0  0  0  0  0  0  0  0  0  0  0  0
   -6.7879    1.4193    1.1126 N   0  0  0  0  0  0  0  0  0  0  0  0
   -3.5783   -0.1788    0.2494 C   0  0  0  0  0  0  0  0  0  0  0  0
   -1.0332   -0.9919   -0.5536 C   0  0  0  0  0  0  0  0  0  0  0  0
   -2.9766    0.4099   -0.8629 C   0  0  0  0  0  0  0  0  0  0  0  0
    2.4883   -2.3784   -0.2374 C   0  0  0  0  0  0  0  0  0  0  0  0
   -1.7041    0.0034   -1.2643 C   0  0  0  0  0  0  0  0  0  0  0  0
   -4.8902    0.2241    0.6796 C   0  0  0  0  0  0  0  0  0  0  0  0
    3.4916   -1.3181    0.0008 C   0  0  0  0  0  0  0  0  0  0  0  0
   -2.9073   -1.1739    0.9604 C   0  0  0  0  0  0  0  0  0  0  0  0
   -1.6349   -1.5806    0.5588 C   0  0  0  0  0  0  0  0  0  0  0  0
    0.3212   -1.4265   -0.9820 C   0  0  0  0  0  0  0  0  0  0  0  0
    5.5079   -0.0929    0.5468 C   0  0  0  0  0  0  0  0  0  0  0  0
    4.4138    0.6807    0.1477 C   0  0  0  0  0  0  0  0  0  0  0  0
   -5.7836   -0.6055    1.3121 C   0  0  0  0  0  0  0  0  0  0  0  0
    6.7393    0.4868    0.8920 C   0  0  0  0  0  0  0  0  0  0  0  0
    4.5599    2.0838    0.0931 C   0  0  0  0  0  0  0  0  0  0  0  0
   -5.5622    1.4574    0.5834 C   0  0  0  0  0  0  0  0  0  0  0  0
    6.8573    1.8775    0.8295 C   0  0  0  0  0  0  0  0  0  0  0  0
    5.7831    2.6675    0.4354 C   0  0  0  0  0  0  0  0  0  0  0  0
   -2.9113    1.9246   -2.6951 C   0  0  0  0  0  0  0  0  0  0  0  0
    2.5637   -2.7279   -1.2733 H   0  0  0  0  0  0  0  0  0  0  0  0
    2.6530   -3.2405    0.4185 H   0  0  0  0  0  0  0  0  0  0  0  0
   -1.1862    0.4306   -2.1159 H   0  0  0  0  0  0  0  0  0  0  0  0
   -3.3408   -1.6501    1.8363 H   0  0  0  0  0  0  0  0  0  0  0  0
   -1.1605   -2.3783    1.1225 H   0  0  0  0  0  0  0  0  0  0  0  0
    0.8291   -1.9429    0.9835 H   0  0  0  0  0  0  0  0  0  0  0  0
   -5.7502   -1.6449    1.6087 H   0  0  0  0  0  0  0  0  0  0  0  0
    7.5824   -0.1238    1.2005 H   0  0  0  0  0  0  0  0  0  0  0  0
    3.7272    2.7105   -0.2134 H   0  0  0  0  0  0  0  0  0  0  0  0
   -5.2205    2.3937    0.1656 H   0  0  0  0  0  0  0  0  0  0  0  0
    7.8019    2.3464    1.0926 H   0  0  0  0  0  0  0  0  0  0  0  0
    5.8934    3.7476    0.3927 H   0  0  0  0  0  0  0  0  0  0  0  0
   -7.7554   -0.1313    1.9962 H   0  0  0  0  0  0  0  0  0  0  0  0
   -1.9925    2.4381   -2.3916 H   0  0  0  0  0  0  0  0  0  0  0  0
   -2.7356    1.1670   -3.4665 H   0  0  0  0  0  0  0  0  0  0  0  0
   -3.5618    2.6836   -3.1427 H   0  0  0  0  0  0  0  0  0  0  0  0
  1 14  1  0  0  0  0
  1 18  1  0  0  0  0
  2 10  1  0  0  0  0
  2 26  1  0  0  0  0
  3 17  2  0  0  0  0
  4 11  1  0  0  0  0
  4 17  1  0  0  0  0
  4 32  1  0  0  0  0
  5 14  2  0  0  0  0
  5 19  1  0  0  0  0
  6  7  1  0  0  0  0
  6 20  1  0  0  0  0
  6 39  1  0  0  0  0
  7 23  2  0  0  0  0
  8 10  2  0  0  0  0
  8 13  1  0  0  0  0
  8 15  1  0  0  0  0
  9 12  2  0  0  0  0
  9 16  1  0  0  0  0
  9 17  1  0  0  0  0
 10 12  1  0  0  0  0
 11 14  1  0  0  0  0
 11 27  1  0  0  0  0
 11 28  1  0  0  0  0
 12 29  1  0  0  0  0
 13 20  2  0  0  0  0
 13 23  1  0  0  0  0
 15 16  2  0  0  0  0
 15 30  1  0  0  0  0
 16 31  1  0  0  0  0
 18 19  1  0  0  0  0
 18 21  2  0  0  0  0
 19 22  2  0  0  0  0
 20 33  1  0  0  0  0
 21 24  1  0  0  0  0
 21 34  1  0  0  0  0
 22 25  1  0  0  0  0
 22 35  1  0  0  0  0
 23 36  1  0  0  0  0
 24 25  2  0  0  0  0
 24 37  1  0  0  0  0
 25 38  1  0  0  0  0
 26 40  1  0  0  0  0
 26 41  1  0  0  0  0
 26 42  1  0  0  0  0
M  END
> <PUBCHEM_COMPOUND_CID>
90354569

> <PUBCHEM_CONFORMER_RMSD>
0.8

> <PUBCHEM_CONFORMER_DIVERSEORDER>
16
65
37
51
29
22
55
6
15
47
21
40
53
19
25
61
54
48
39
50
10
63
38
60
5
42
49
26
43
62
58
57
30
34
41
18
33
59
1
13
28
64
46
7
36
31
2
56
12
11
9
27
14
44
32
23
24
35
20
8
45
52
4
17
3

> <PUBCHEM_MMFF94_PARTIAL_CHARGES>
37
1 -0.08
10 0.08
11 0.48
12 -0.15
13 -0.05
14 0.2
15 -0.15
16 -0.15
17 0.54
18 0.04
19 0.23
2 -0.36
20 -0.3
21 -0.15
22 -0.15
23 0.14
24 -0.15
25 -0.15
26 0.28
29 0.15
3 -0.57
30 0.15
31 0.15
32 0.37
33 0.15
34 0.15
35 0.15
36 0.15
37 0.15
38 0.15
39 0.27
4 -0.73
5 -0.57
6 0.3
7 -0.71
8 0.05
9 0.09

> <PUBCHEM_EFFECTIVE_ROTOR_COUNT>
6

> <PUBCHEM_PHARMACOPHORE_FEATURES>
10
1 2 acceptor
1 3 acceptor
1 4 donor
1 5 acceptor
1 6 donor
1 7 acceptor
5 1 5 14 18 19 rings
5 6 7 13 20 23 rings
6 18 19 21 22 24 25 rings
6 8 9 10 12 15 16 rings

> <PUBCHEM_HEAVY_ATOM_COUNT>
26

> <PUBCHEM_ATOM_DEF_STEREO_COUNT>
0

> <PUBCHEM_ATOM_UDEF_STEREO_COUNT>
0

> <PUBCHEM_BOND_DEF_STEREO_COUNT>
0

> <PUBCHEM_BOND_UDEF_STEREO_COUNT>
0

> <PUBCHEM_ISOTOPIC_ATOM_COUNT>
0

> <PUBCHEM_COMPONENT_COUNT>
1

> <PUBCHEM_CACTVS_TAUTO_COUNT>
7

> <PUBCHEM_CONFORMER_ID>
0562B38900000010

> <PUBCHEM_MMFF94_ENERGY>
67.002

> <PUBCHEM_FEATURE_SELFOVERLAP>
50.819

> <PUBCHEM_SHAPE_FINGERPRINT>
10 15 17967813868735283480
10319926 262 17241319175696444810
10670039 82 15123522371210125754
11796584 16 12319445589750281366
12403259 415 18261110716768206806
12616971 3 17846489293044742078
12760667 363 8214149581032334823
12788726 201 16917077624518064384
12892183 10 17386278792601878110
14251764 75 18270682107886841272
14341114 176 18186520982333416622
14705955 166 17821723901488433420
14840074 17 16988564580911894697
15131766 46 17989197166377175185
15183329 4 11959738148440807951
15188451 53 15357696396538200751
15419008 145 18264200323832753440
15475509 8 11671789256473388123
15510800 12 7997692060004676568
15519825 34 16660930001269165491
15575132 122 16128104330429902793
1577012 14 17847056697237776422
16760501 71 18410858780159182136
18393751 57 18408327692140519379
19784866 240 12396302560491097087
2026 5 11386369262170645777
20691028 202 18129096904598651224
21033648 29 17822286834387794047
21033650 10 14620528830429183730
21315764 119 13110969733751084080
21792934 111 17676494917883663461
22122407 14 18131081440790838056
22393880 68 12607403304340553060
23559900 14 17533219661448287398
23929065 36 17168418261004622277
2838139 119 17846490444359578488
3014063 24 12179838412180565200
312425 54 17748829626441036306
3178227 256 18335699400571695338
3383291 50 16226056612986687521
3472631 163 17632016442049205076
351380 3 12468351358678511770
3882209 13 17393897584124464515
397830 11 18338247037083817643
465052 167 12107789609972503178
5104073 3 17750507382384462656
5364581 5 18042974353032257849
5718773 13 8141820369680076328
57724786 102 18201438047997506166
59682541 52 10159696876320168210
6608658 132 15841280259451156787
7970288 3 11530753813130139176

> <PUBCHEM_SHAPE_MULTIPOLES>
507.25
19.58
2.51
1.61
2.56
0.43
-0.91
10.66
10.6
2.82
-0.26
-2.3
0.5
1.44

> <PUBCHEM_SHAPE_SELFOVERLAP>
1110.591

> <PUBCHEM_SHAPE_VOLUME>
276.6

> <PUBCHEM_COORDINATE_TYPE>
2
5
10

$$$$
90353912
  -OEChem-05102415123D

 40 42  0     0  0  0  0  0  0999 V2000
   -7.4285   -2.5175    1.0734 Br  0  0  0  0  0  0  0  0  0  0  0  0
   -3.6468   -0.5483   -2.4471 Cl  0  0  0  0  0  0  0  0  0  0  0  0
    4.2427    1.6701    0.5877 O   0  0  0  0  0  0  0  0  0  0  0  0
   -0.5070    2.9465   -0.6665 O   0  0  0  0  0  0  0  0  0  0  0  0
   -1.6754    0.9995   -0.1965 N   0  0  0  0  0  0  0  0  0  0  0  0
    6.1199   -2.3497   -0.4762 N   0  0  0  0  0  0  0  0  0  0  0  0
    6.3151   -2.0830    0.8264 N   0  0  0  0  0  0  0  0  0  0  0  0
    3.1657   -0.3797   -0.0574 C   0  0  0  0  0  0  0  0  0  0  0  0
    0.7567    1.0102   -0.2768 C   0  0  0  0  0  0  0  0  0  0  0  0
    3.1224    0.9879    0.2142 C   0  0  0  0  0  0  0  0  0  0  0  0
   -2.9995    1.5696   -0.2984 C   0  0  0  0  0  0  0  0  0  0  0  0
    1.9178    1.6828    0.1044 C   0  0  0  0  0  0  0  0  0  0  0  0
    4.3965   -1.1157    0.0512 C   0  0  0  0  0  0  0  0  0  0  0  0
    2.0047   -1.0522   -0.4389 C   0  0  0  0  0  0  0  0  0  0  0  0
    0.8002   -0.3574   -0.5484 C   0  0  0  0  0  0  0  0  0  0  0  0
   -4.0701    0.5618    0.0049 C   0  0  0  0  0  0  0  0  0  0  0  0
   -0.4995    1.7340   -0.3895 C   0  0  0  0  0  0  0  0  0  0  0  0
    4.9848   -1.7934   -0.9886 C   0  0  0  0  0  0  0  0  0  0  0  0
   -4.4243   -0.4295   -0.9105 C   0  0  0  0  0  0  0  0  0  0  0  0
   -4.7164    0.6344    1.2389 C   0  0  0  0  0  0  0  0  0  0  0  0
    5.2592   -1.3288    1.1431 C   0  0  0  0  0  0  0  0  0  0  0  0
   -5.4247   -1.3478   -0.5919 C   0  0  0  0  0  0  0  0  0  0  0  0
   -5.7170   -0.2837    1.5575 C   0  0  0  0  0  0  0  0  0  0  0  0
   -6.0712   -1.2749    0.6420 C   0  0  0  0  0  0  0  0  0  0  0  0
    4.0949    3.0649    0.8431 C   0  0  0  0  0  0  0  0  0  0  0  0
   -3.1249    2.0011   -1.2983 H   0  0  0  0  0  0  0  0  0  0  0  0
   -3.0464    2.4174    0.3963 H   0  0  0  0  0  0  0  0  0  0  0  0
    1.8244    2.7435    0.3099 H   0  0  0  0  0  0  0  0  0  0  0  0
    2.0165   -2.1177   -0.6573 H   0  0  0  0  0  0  0  0  0  0  0  0
   -0.0729   -0.9135   -0.8773 H   0  0  0  0  0  0  0  0  0  0  0  0
   -1.6137    0.0275    0.0890 H   0  0  0  0  0  0  0  0  0  0  0  0
   -4.4515    1.3989    1.9647 H   0  0  0  0  0  0  0  0  0  0  0  0
    4.7110   -1.9301   -2.0258 H   0  0  0  0  0  0  0  0  0  0  0  0
    5.1657   -0.9685    2.1580 H   0  0  0  0  0  0  0  0  0  0  0  0
   -5.7010   -2.1205   -1.3063 H   0  0  0  0  0  0  0  0  0  0  0  0
   -6.2107   -0.2134    2.5234 H   0  0  0  0  0  0  0  0  0  0  0  0
    6.8042   -2.9202   -0.9570 H   0  0  0  0  0  0  0  0  0  0  0  0
    3.4309    3.2534    1.6937 H   0  0  0  0  0  0  0  0  0  0  0  0
    3.7932    3.6125   -0.0564 H   0  0  0  0  0  0  0  0  0  0  0  0
    5.0825    3.4449    1.1255 H   0  0  0  0  0  0  0  0  0  0  0  0
  1 24  1  0  0  0  0
  2 19  1  0  0  0  0
  3 10  1  0  0  0  0
  3 25  1  0  0  0  0
  4 17  2  0  0  0  0
  5 11  1  0  0  0  0
  5 17  1  0  0  0  0
  5 31  1  0  0  0  0
  6  7  1  0  0  0  0
  6 18  1  0  0  0  0
  6 37  1  0  0  0  0
  7 21  2  0  0  0  0
  8 10  2  0  0  0  0
  8 13  1  0  0  0  0
  8 14  1  0  0  0  0
  9 12  2  0  0  0  0
  9 15  1  0  0  0  0
  9 17  1  0  0  0  0
 10 12  1  0  0  0  0
 11 16  1  0  0  0  0
 11 26  1  0  0  0  0
 11 27  1  0  0  0  0
 12 28  1  0  0  0  0
 13 18  2  0  0  0  0
 13 21  1  0  0  0  0
 14 15  2  0  0  0  0
 14 29  1  0  0  0  0
 15 30  1  0  0  0  0
 16 19  2  0  0  0  0
 16 20  1  0  0  0  0
 18 33  1  0  0  0  0
 19 22  1  0  0  0  0
 20 23  2  0  0  0  0
 20 32  1  0  0  0  0
 21 34  1  0  0  0  0
 22 24  2  0  0  0  0
 22 35  1  0  0  0  0
 23 24  1  0  0  0  0
 23 36  1  0  0  0  0
 25 38  1  0  0  0  0
 25 39  1  0  0  0  0
 25 40  1  0  0  0  0
M  END
> <PUBCHEM_COMPOUND_CID>
90353912

> <PUBCHEM_CONFORMER_RMSD>
0.8

> <PUBCHEM_CONFORMER_DIVERSEORDER>
6
46
12
27
7
36
22
50
31
47
56
48
23
33
45
5
54
29
44
17
35
41
9
37
49
42
34
30
39
55
58
15
13
40
26
25
8
24
11
2
57
60
32
10
28
1
43
38
52
21
20
59
3
4
16
19
53
18
51
14

> <PUBCHEM_MMFF94_PARTIAL_CHARGES>
35
1 -0.11
10 0.08
11 0.44
12 -0.15
13 -0.05
14 -0.15
15 -0.15
16 -0.14
17 0.54
18 -0.3
19 0.18
2 -0.18
20 -0.15
21 0.14
22 -0.15
23 -0.15
24 0.11
25 0.28
28 0.15
29 0.15
3 -0.36
30 0.15
31 0.37
32 0.15
33 0.15
34 0.15
35 0.15
36 0.15
37 0.27
4 -0.57
5 -0.73
6 0.3
7 -0.71
8 0.05
9 0.09

> <PUBCHEM_EFFECTIVE_ROTOR_COUNT>
6

> <PUBCHEM_PHARMACOPHORE_FEATURES>
9
1 1 hydrophobe
1 3 acceptor
1 4 acceptor
1 5 donor
1 6 donor
1 7 acceptor
5 6 7 13 18 21 rings
6 16 19 20 22 23 24 rings
6 8 9 10 12 14 15 rings

> <PUBCHEM_HEAVY_ATOM_COUNT>
25

> <PUBCHEM_ATOM_DEF_STEREO_COUNT>
0

> <PUBCHEM_ATOM_UDEF_STEREO_COUNT>
0

> <PUBCHEM_BOND_DEF_STEREO_COUNT>
0

> <PUBCHEM_BOND_UDEF_STEREO_COUNT>
0

> <PUBCHEM_ISOTOPIC_ATOM_COUNT>
0

> <PUBCHEM_COMPONENT_COUNT>
1

> <PUBCHEM_CACTVS_TAUTO_COUNT>
7

> <PUBCHEM_CONFORMER_ID>
0562B0F800000006

> <PUBCHEM_MMFF94_ENERGY>
69.7719

> <PUBCHEM_FEATURE_SELFOVERLAP>
45.671

> <PUBCHEM_SHAPE_FINGERPRINT>
10 15 12823289122409318287
11545043 162 18262232222902666005
11578080 2 16915078854730028922
12107183 9 17985840241682724273
12166972 35 17530690913320578975
12403259 118 13542172935947414417
12422481 6 17632015260426868558
12596602 18 18201445804892838795
12616971 3 17989483030651862645
12623949 98 18271536333615260686
12633257 1 16271926047711730681
13073987 5 18342178903533653217
13533116 47 18341614857973064440
13540713 4 18263062376036821028
13782708 43 18041276561456245882
13862211 1 18261111846355271762
13955234 65 18271236227493082104
14123256 34 18411986823629453214
14251764 30 17967534579860211271
14341114 328 17131839793543477905
14849402 71 17632004369181486656
15064981 113 14201937048463123267
15238133 3 15985108504666530400
15475509 35 17749940078146730098
15510800 12 17459763699690164523
15880784 105 18413112766596531209
16110190 28 18131351929779327047
16112460 7 18271530882901244330
17627616 140 17313656071674553963
17780758 139 17988644052331170665
17844677 252 18412827962709338461
18222031 100 17022903453959395188
18927931 339 18262239919989917215
19377110 9 17774996933782636168
19841028 212 18268699684385898767
20028762 73 18344144782673729822
21033650 10 16154263906493364141
21049683 271 18409736162831836868
21120745 212 11953054152795139564
21130935 74 18339930411103106083
21150785 3 16515412863106943822
21267235 1 18411423894834246902
21792965 106 9439137420374368646
2260408 40 16845020005079402222
2303208 19 18040432200596994215
23522609 53 18047509713880173932
23559900 14 17240777202205158644
270888 7 10519992543687183971
34797466 226 16732987569263378836
3663271 9 18131357444533016817
3862424 121 16444779235838963507
465052 167 18413111645668062926
5104073 3 18272933821347429169
5718773 13 18333732420775577611
5758199 1 17986670587826409536
59682541 52 12757420653206120032
636775 8 18126576614122392150
7495541 125 18337107874523238212
7970288 3 18334859433268925235
8863177 126 18334299789886115706

> <PUBCHEM_SHAPE_MULTIPOLES>
495.62
18.96
2.94
1.38
9.28
0.7
0.38
-15.19
-5.91
-2.94
-0.38
1.64
-0.31
1.16

> <PUBCHEM_SHAPE_SELFOVERLAP>
1054.176

> <PUBCHEM_SHAPE_VOLUME>
284.4

> <PUBCHEM_COORDINATE_TYPE>
2
5
10

$$$$
90354088
  -OEChem-05102415123D

 43 45  0     0  0  0  0  0  0999 V2000
    6.2041    0.4864    2.1092 Cl  0  0  0  0  0  0  0  0  0  0  0  0
    4.3043    2.4702   -1.3808 F   0  0  0  0  0  0  0  0  0  0  0  0
    4.6888    2.7981    0.7340 F   0  0  0  0  0  0  0  0  0  0  0  0
    6.2690    2.0499   -0.5493 F   0  0  0  0  0  0  0  0  0  0  0  0
   -3.0047    1.8295   -0.6545 O   0  0  0  0  0  0  0  0  0  0  0  0
    0.1777   -3.0535    0.3273 O   0  0  0  0  0  0  0  0  0  0  0  0
    0.7590   -1.4680   -1.2618 N   0  0  0  0  0  0  0  0  0  0  0  0
   -7.1466    0.9822    1.0604 N   0  0  0  0  0  0  0  0  0  0  0  0
   -7.2514    1.3630   -0.2242 N   0  0  0  0  0  0  0  0  0  0  0  0
    2.0874   -1.9733   -1.5247 C   0  0  0  0  0  0  0  0  0  0  0  0
    3.1140   -1.3507   -0.6232 C   0  0  0  0  0  0  0  0  0  0  0  0
   -3.9534   -0.2652    0.0452 C   0  0  0  0  0  0  0  0  0  0  0  0
   -1.4340   -1.4367   -0.2076 C   0  0  0  0  0  0  0  0  0  0  0  0
   -2.8652    0.5034   -0.3684 C   0  0  0  0  0  0  0  0  0  0  0  0
    3.5438   -0.0435   -0.8525 C   0  0  0  0  0  0  0  0  0  0  0  0
   -1.6055   -0.0825   -0.4948 C   0  0  0  0  0  0  0  0  0  0  0  0
   -0.1213   -2.0481   -0.3411 C   0  0  0  0  0  0  0  0  0  0  0  0
    4.4976    0.5341   -0.0146 C   0  0  0  0  0  0  0  0  0  0  0  0
   -3.7818   -1.6194    0.3327 C   0  0  0  0  0  0  0  0  0  0  0  0
   -5.2609    0.3181    0.1805 C   0  0  0  0  0  0  0  0  0  0  0  0
   -2.5223   -2.2052    0.2061 C   0  0  0  0  0  0  0  0  0  0  0  0
    3.6380   -2.0800    0.4443 C   0  0  0  0  0  0  0  0  0  0  0  0
    5.0218   -0.1953    1.0526 C   0  0  0  0  0  0  0  0  0  0  0  0
    4.5920   -1.5025    1.2821 C   0  0  0  0  0  0  0  0  0  0  0  0
    4.9332    1.9360   -0.2952 C   0  0  0  0  0  0  0  0  0  0  0  0
   -5.9732    0.3519    1.3544 C   0  0  0  0  0  0  0  0  0  0  0  0
   -6.0965    0.9548   -0.7567 C   0  0  0  0  0  0  0  0  0  0  0  0
   -2.8139    2.7461    0.4207 C   0  0  0  0  0  0  0  0  0  0  0  0
    2.3261   -1.7538   -2.5717 H   0  0  0  0  0  0  0  0  0  0  0  0
    2.0842   -3.0644   -1.4201 H   0  0  0  0  0  0  0  0  0  0  0  0
    0.4600   -0.6807   -1.8271 H   0  0  0  0  0  0  0  0  0  0  0  0
    3.1268    0.5131   -1.6880 H   0  0  0  0  0  0  0  0  0  0  0  0
   -0.7750    0.5531   -0.7896 H   0  0  0  0  0  0  0  0  0  0  0  0
   -4.6174   -2.2384    0.6512 H   0  0  0  0  0  0  0  0  0  0  0  0
   -2.4109   -3.2631    0.4291 H   0  0  0  0  0  0  0  0  0  0  0  0
    3.3111   -3.0986    0.6355 H   0  0  0  0  0  0  0  0  0  0  0  0
    4.9904   -2.0841    2.1096 H   0  0  0  0  0  0  0  0  0  0  0  0
   -5.7616   -0.0037    2.3534 H   0  0  0  0  0  0  0  0  0  0  0  0
   -5.9161    1.1396   -1.8064 H   0  0  0  0  0  0  0  0  0  0  0  0
   -7.9166    1.1853    1.6854 H   0  0  0  0  0  0  0  0  0  0  0  0
   -3.0081    3.7555    0.0479 H   0  0  0  0  0  0  0  0  0  0  0  0
   -3.5061    2.5391    1.2426 H   0  0  0  0  0  0  0  0  0  0  0  0
   -1.7814    2.7001    0.7813 H   0  0  0  0  0  0  0  0  0  0  0  0
  1 23  1  0  0  0  0
  2 25  1  0  0  0  0
  3 25  1  0  0  0  0
  4 25  1  0  0  0  0
  5 14  1  0  0  0  0
  5 28  1  0  0  0  0
  6 17  2  0  0  0  0
  7 10  1  0  0  0  0
  7 17  1  0  0  0  0
  7 31  1  0  0  0  0
  8  9  1  0  0  0  0
  8 26  1  0  0  0  0
  8 40  1  0  0  0  0
  9 27  2  0  0  0  0
 10 11  1  0  0  0  0
 10 29  1  0  0  0  0
 10 30  1  0  0  0  0
 11 15  2  0  0  0  0
 11 22  1  0  0  0  0
 12 14  2  0  0  0  0
 12 19  1  0  0  0  0
 12 20  1  0  0  0  0
 13 16  2  0  0  0  0
 13 17  1  0  0  0  0
 13 21  1  0  0  0  0
 14 16  1  0  0  0  0
 15 18  1  0  0  0  0
 15 32  1  0  0  0  0
 16 33  1  0  0  0  0
 18 23  2  0  0  0  0
 18 25  1  0  0  0  0
 19 21  2  0  0  0  0
 19 34  1  0  0  0  0
 20 26  2  0  0  0  0
 20 27  1  0  0  0  0
 21 35  1  0  0  0  0
 22 24  2  0  0  0  0
 22 36  1  0  0  0  0
 23 24  1  0  0  0  0
 24 37  1  0  0  0  0
 26 38  1  0  0  0  0
 27 39  1  0  0  0  0
 28 41  1  0  0  0  0
 28 42  1  0  0  0  0
 28 43  1  0  0  0  0
M  END
> <PUBCHEM_COMPOUND_CID>
90354088

> <PUBCHEM_CONFORMER_RMSD>
0.8

> <PUBCHEM_CONFORMER_DIVERSEORDER>
2
41
48
13
29
35
69
43
73
1
71
76
55
37
38
60
61
72
28
20
9
22
39
67
23
26
27
10
66
68
49
51
58
14
59
36
21
62
8
77
12
32
52
50
34
3
63
30
17
57
46
24
4
40
11
70
64
56
47
45
53
75
7
42
31
54
19
6
18
25
5
16
44
33
74
65
15

> <PUBCHEM_MMFF94_PARTIAL_CHARGES>
38
1 -0.18
10 0.44
11 -0.14
12 0.05
13 0.09
14 0.08
15 -0.15
16 -0.15
17 0.54
18 -0.14
19 -0.15
2 -0.34
20 -0.05
21 -0.15
22 -0.15
23 0.18
24 -0.15
25 1.16
26 -0.3
27 0.14
28 0.28
3 -0.34
31 0.37
32 0.15
33 0.15
34 0.15
35 0.15
36 0.15
37 0.15
38 0.15
39 0.15
4 -0.34
40 0.27
5 -0.36
6 -0.57
7 -0.73
8 0.3
9 -0.71

> <PUBCHEM_EFFECTIVE_ROTOR_COUNT>
7

> <PUBCHEM_PHARMACOPHORE_FEATURES>
8
1 5 acceptor
1 6 acceptor
1 7 donor
1 8 donor
1 9 acceptor
5 8 9 20 26 27 rings
6 11 15 18 22 23 24 rings
6 12 13 14 16 19 21 rings

> <PUBCHEM_HEAVY_ATOM_COUNT>
28

> <PUBCHEM_ATOM_DEF_STEREO_COUNT>
0

> <PUBCHEM_ATOM_UDEF_STEREO_COUNT>
0

> <PUBCHEM_BOND_DEF_STEREO_COUNT>
0

> <PUBCHEM_BOND_UDEF_STEREO_COUNT>
0

> <PUBCHEM_ISOTOPIC_ATOM_COUNT>
0

> <PUBCHEM_COMPONENT_COUNT>
1

> <PUBCHEM_CACTVS_TAUTO_COUNT>
7

> <PUBCHEM_CONFORMER_ID>
0562B1A800000002

> <PUBCHEM_MMFF94_ENERGY>
72.2571

> <PUBCHEM_FEATURE_SELFOVERLAP>
40.597

> <PUBCHEM_SHAPE_FINGERPRINT>
10 15 18113624495188093603
12107183 9 18262787477118861650
12596602 18 17530964713058726338
13533116 47 17604149211989615962
13782708 43 11963398457568445435
14216079 64 8430314628669426617
14251764 38 18340207388763578680
15183329 4 18060140951036572753
15238133 3 18341888650081256202
15274700 259 18115568376645534181
15348495 7 17822297902671821443
16760501 71 18408608075810070669
17980427 23 18335421317896144287
20715895 44 18410854326404638127
21033648 29 18201997785494763994
21315764 268 18261951834599641175
21792934 111 17895756193594299469
21859007 373 17241876602448330277
2215653 11 8934706787297077123
23559900 14 18269851838684036742
2748736 6 18343017787923915353
312425 54 16877661292124109786
3472631 163 18342739632456187119
34797466 226 17846226514524732439
3680242 22 18336268950828871763
397830 11 18114476638322650299
465052 167 11891335335501835154
5104073 3 18041000673757552523
5372103 7 15194417881207087458
59682541 52 15195297404213939332
7808743 9 18197496445067742022
960060 61 10735872881134989158

> <PUBCHEM_SHAPE_MULTIPOLES>
529.59
18.76
3.06
1.32
8.6
0.45
-0.26
11.49
-5.31
-2.1
0.27
-1.41
0.06
-0.29

> <PUBCHEM_SHAPE_SELFOVERLAP>
1147.491

> <PUBCHEM_SHAPE_VOLUME>
292.7

> <PUBCHEM_COORDINATE_TYPE>
2
5
10

$$$$
118668474
  -OEChem-05102415123D

 46 49  0     1  0  0  0  0  0999 V2000
   -7.3124    2.7109    0.2633 O   0  0  0  0  0  0  0  0  0  0  0  0
    4.7062   -1.4917    0.7929 O   0  0  0  0  0  0  0  0  0  0  0  0
   -0.2178   -2.6764    0.4578 O   0  0  0  0  0  0  0  0  0  0  0  0
   -5.8877    1.1887    1.3746 N   0  0  0  0  0  0  0  0  0  0  0  0
   -5.5613    1.5755   -0.8298 N   0  0  0  0  0  0  0  0  0  0  0  0
   -0.9309   -1.3597   -1.3150 N   0  0  0  0  0  0  0  0  0  0  0  0
    6.2839    2.7761    0.4587 N   0  0  0  0  0  0  0  0  0  0  0  0
    6.9855    1.9633   -0.3497 N   0  0  0  0  0  0  0  0  0  0  0  0
   -4.6733    0.4871    1.0379 C   0  0  1  0  0  0  0  0  0  0  0  0
   -4.5892   -0.9840    1.4403 C   0  0  0  0  0  0  0  0  0  0  0  0
   -4.6397    0.6413   -0.4564 C   0  0  0  0  0  0  0  0  0  0  0  0
   -3.2219   -1.2883   -0.6482 C   0  0  0  0  0  0  0  0  0  0  0  0
   -3.5577   -1.7039    0.5931 C   0  0  0  0  0  0  0  0  0  0  0  0
   -3.9254   -0.1613   -1.2512 C   0  0  0  0  0  0  0  0  0  0  0  0
   -6.3679    1.9343    0.2674 C   0  0  0  0  0  0  0  0  0  0  0  0
   -2.2047   -1.9857   -1.4965 C   0  0  0  0  0  0  0  0  0  0  0  0
   -0.0228   -1.7603   -0.3368 C   0  0  0  0  0  0  0  0  0  0  0  0
    1.2459   -0.9911   -0.2606 C   0  0  0  0  0  0  0  0  0  0  0  0
    3.6288    0.4529   -0.1212 C   0  0  0  0  0  0  0  0  0  0  0  0
    2.4007   -1.5971    0.2342 C   0  0  0  0  0  0  0  0  0  0  0  0
    3.5923   -0.8752    0.3039 C   0  0  0  0  0  0  0  0  0  0  0  0
    1.2825    0.3370   -0.6857 C   0  0  0  0  0  0  0  0  0  0  0  0
    2.4738    1.0591   -0.6157 C   0  0  0  0  0  0  0  0  0  0  0  0
    4.8470    1.2150   -0.0597 C   0  0  0  0  0  0  0  0  0  0  0  0
    4.9975    2.3724    0.6645 C   0  0  0  0  0  0  0  0  0  0  0  0
    6.1024    1.0116   -0.6632 C   0  0  0  0  0  0  0  0  0  0  0  0
    4.5663   -2.8504    1.2013 C   0  0  0  0  0  0  0  0  0  0  0  0
   -3.8461    1.0545    1.4840 H   0  0  0  0  0  0  0  0  0  0  0  0
   -5.5568   -1.4895    1.3340 H   0  0  0  0  0  0  0  0  0  0  0  0
   -4.3099   -1.0523    2.4982 H   0  0  0  0  0  0  0  0  0  0  0  0
   -6.2623    1.2741    2.3142 H   0  0  0  0  0  0  0  0  0  0  0  0
   -3.0845   -2.5807    1.0256 H   0  0  0  0  0  0  0  0  0  0  0  0
   -3.9543   -0.0686   -2.3311 H   0  0  0  0  0  0  0  0  0  0  0  0
   -5.7168    1.8708   -1.7864 H   0  0  0  0  0  0  0  0  0  0  0  0
   -2.4607   -1.9438   -2.5607 H   0  0  0  0  0  0  0  0  0  0  0  0
   -2.1296   -3.0454   -1.2252 H   0  0  0  0  0  0  0  0  0  0  0  0
   -0.6900   -0.6197   -1.9658 H   0  0  0  0  0  0  0  0  0  0  0  0
    2.3153   -2.6330    0.5435 H   0  0  0  0  0  0  0  0  0  0  0  0
    0.3998    0.8545   -1.0492 H   0  0  0  0  0  0  0  0  0  0  0  0
    2.4796    2.0939   -0.9506 H   0  0  0  0  0  0  0  0  0  0  0  0
    4.3258    2.9370    1.2963 H   0  0  0  0  0  0  0  0  0  0  0  0
    6.4146    0.2112   -1.3194 H   0  0  0  0  0  0  0  0  0  0  0  0
    6.7471    3.5927    0.8374 H   0  0  0  0  0  0  0  0  0  0  0  0
    3.8714   -2.9521    2.0420 H   0  0  0  0  0  0  0  0  0  0  0  0
    4.3078   -3.5023    0.3598 H   0  0  0  0  0  0  0  0  0  0  0  0
    5.5467   -3.1784    1.5629 H   0  0  0  0  0  0  0  0  0  0  0  0
  1 15  2  0  0  0  0
  2 21  1  0  0  0  0
  2 27  1  0  0  0  0
  3 17  2  0  0  0  0
  4  9  1  0  0  0  0
  4 15  1  0  0  0  0
  4 31  1  0  0  0  0
  5 11  1  0  0  0  0
  5 15  1  0  0  0  0
  5 34  1  0  0  0  0
  6 16  1  0  0  0  0
  6 17  1  0  0  0  0
  6 37  1  0  0  0  0
  7  8  1  0  0  0  0
  7 25  1  0  0  0  0
  7 43  1  0  0  0  0
  8 26  2  0  0  0  0
  9 10  1  0  0  0  0
  9 11  1  0  0  0  0
  9 28  1  0  0  0  0
 10 13  1  0  0  0  0
 10 29  1  0  0  0  0
 10 30  1  0  0  0  0
 11 14  2  0  0  0  0
 12 13  2  0  0  0  0
 12 14  1  0  0  0  0
 12 16  1  0  0  0  0
 13 32  1  0  0  0  0
 14 33  1  0  0  0  0
 16 35  1  0  0  0  0
 16 36  1  0  0  0  0
 17 18  1  0  0  0  0
 18 20  2  0  0  0  0
 18 22  1  0  0  0  0
 19 21  2  0  0  0  0
 19 23  1  0  0  0  0
 19 24  1  0  0  0  0
 20 21  1  0  0  0  0
 20 38  1  0  0  0  0
 22 23  2  0  0  0  0
 22 39  1  0  0  0  0
 23 40  1  0  0  0  0
 24 25  2  0  0  0  0
 24 26  1  0  0  0  0
 25 41  1  0  0  0  0
 26 42  1  0  0  0  0
 27 44  1  0  0  0  0
 27 45  1  0  0  0  0
 27 46  1  0  0  0  0
M  END
> <PUBCHEM_COMPOUND_CID>
118668474

> <PUBCHEM_CONFORMER_RMSD>
0.8

> <PUBCHEM_CONFORMER_DIVERSEORDER>
7
25
72
50
28
44
12
61
67
22
41
70
52
46
48
69
66
47
71
45
73
54
40
30
60
35
11
13
31
59
18
63
38
16
26
2
65
21
19
55
5
53
39
20
57
51
17
4
64
6
24
62
34
37
15
33
29
36
8
43
42
32
68
1
23
9
3
27
10
49
56
14
58

> <PUBCHEM_MMFF94_PARTIAL_CHARGES>
38
1 -0.57
10 0.14
11 -0.03
12 -0.14
13 -0.29
14 -0.15
15 0.69
16 0.44
17 0.54
18 0.09
19 0.05
2 -0.36
20 -0.15
21 0.08
22 -0.15
23 -0.15
24 -0.05
25 -0.3
26 0.14
27 0.28
3 -0.57
31 0.37
32 0.15
33 0.15
34 0.37
37 0.37
38 0.15
39 0.15
4 -0.73
40 0.15
41 0.15
42 0.15
43 0.27
5 -0.54
6 -0.73
7 0.3
8 -0.71
9 0.44

> <PUBCHEM_EFFECTIVE_ROTOR_COUNT>
6.6

> <PUBCHEM_PHARMACOPHORE_FEATURES>
12
1 1 acceptor
1 2 acceptor
1 3 acceptor
1 4 donor
1 5 donor
1 6 donor
1 7 donor
1 8 acceptor
5 4 5 9 11 15 rings
5 7 8 24 25 26 rings
6 18 19 20 21 22 23 rings
6 9 10 11 12 13 14 rings

> <PUBCHEM_HEAVY_ATOM_COUNT>
27

> <PUBCHEM_ATOM_DEF_STEREO_COUNT>
0

> <PUBCHEM_ATOM_UDEF_STEREO_COUNT>
1

> <PUBCHEM_BOND_DEF_STEREO_COUNT>
0

> <PUBCHEM_BOND_UDEF_STEREO_COUNT>
0

> <PUBCHEM_ISOTOPIC_ATOM_COUNT>
0

> <PUBCHEM_COMPONENT_COUNT>
1

> <PUBCHEM_CACTVS_TAUTO_COUNT>
63

> <PUBCHEM_CONFORMER_ID>
0712BCBA00000007

> <PUBCHEM_MMFF94_ENERGY>
76.2164

> <PUBCHEM_FEATURE_SELFOVERLAP>
61.066

> <PUBCHEM_SHAPE_FINGERPRINT>
10 15 18333737918654891585
10006869 2 18341608171030880540
10554248 39 18130496427632732038
10906281 52 17750240369496385628
11370993 144 18040156201862283323
12107183 9 18266732489683134690
12596602 18 18333453136268754187
12633257 1 16370733668504902231
12788726 201 17704079464678161776
13073987 5 18335137639142579282
13690498 29 16771536545786252871
13782708 43 11603357882012107948
13785724 45 17979353058823692946
14118638 360 18337945813341259495
14211702 104 11242238641823159360
14341114 176 17822013064714287471
14347424 109 18261387789651287354
14394314 77 18341616997553352953
14790565 3 17974009754550618140
15064981 113 16414920721158213349
15081414 286 18113614599836729804
15183329 4 16056607547087659348
15348495 7 18113901546058859203
15475509 35 16081921526448889282
15519825 34 16733843016049764033
1577012 14 18343861109158111831
16110190 28 18186806902427569749
17780758 139 13551181196174927781
18222031 100 10447667785714527030
19958102 18 12463566292306097997
20511986 3 18272644679990764218
20691028 202 18412544331680209125
20739085 24 18114186306959669430
21033648 144 18334003987541928351
21033648 29 18340761654219346448
21307412 95 11095584673785176093
21421861 104 17895738640084047010
21709351 56 10735613396317130450
21756936 100 18339642355614213199
22122407 14 18267311941470002801
23389318 12 10592042484478447640
270888 7 18342458111004754829
2838139 119 18059573649922317844
312425 54 17240487996434768579
351380 3 11674890978732502579
4073 2 17968100862544841194
5104073 3 18113892779977906106
54039377 194 8142088675933766184
57724786 102 18408318878482246342
6327066 14 18272369750966511181
6328613 192 18272089422355691000
636775 72 17910667989255188064
7226269 152 18131075969092348376
7495541 125 12973598967718043278
7970288 3 10665234761062080769

> <PUBCHEM_SHAPE_MULTIPOLES>
513.13
19.33
3.16
1.22
3.38
0.13
-0.01
16.67
-3.51
-1.43
-0.58
1.03
-0.34
-1.14

> <PUBCHEM_SHAPE_SELFOVERLAP>
1128.305

> <PUBCHEM_SHAPE_VOLUME>
277

> <PUBCHEM_COORDINATE_TYPE>
2
5
10

$$$$
85470577
  -OEChem-05102415123D

 40 42  0     0  0  0  0  0  0999 V2000
    3.3581    2.7559   -0.9822 Cl  0  0  0  0  0  0  0  0  0  0  0  0
    6.0961   -1.6570    1.7219 F   0  0  0  0  0  0  0  0  0  0  0  0
   -2.6577    1.8960    0.3236 O   0  0  0  0  0  0  0  0  0  0  0  0
    1.4182   -2.2847   -0.5958 O   0  0  0  0  0  0  0  0  0  0  0  0
    1.6406   -0.1132   -1.3780 N   0  0  0  0  0  0  0  0  0  0  0  0
   -6.7342   -0.1442    0.1523 N   0  0  0  0  0  0  0  0  0  0  0  0
   -6.5252    0.3600    1.3804 N   0  0  0  0  0  0  0  0  0  0  0  0
   -3.1719   -0.4383    0.0695 C   0  0  0  0  0  0  0  0  0  0  0  0
   -0.4856   -0.9184   -0.5106 C   0  0  0  0  0  0  0  0  0  0  0  0
   -2.2616    0.6187    0.0559 C   0  0  0  0  0  0  0  0  0  0  0  0
    3.0319   -0.2131   -1.7568 C   0  0  0  0  0  0  0  0  0  0  0  0
   -0.9184    0.3785   -0.2342 C   0  0  0  0  0  0  0  0  0  0  0  0
   -4.5613   -0.2128    0.3644 C   0  0  0  0  0  0  0  0  0  0  0  0
   -2.7389   -1.7353   -0.2066 C   0  0  0  0  0  0  0  0  0  0  0  0
   -1.3959   -1.9754   -0.4969 C   0  0  0  0  0  0  0  0  0  0  0  0
    3.9500    0.1213   -0.6169 C   0  0  0  0  0  0  0  0  0  0  0  0
    0.9143   -1.1688   -0.8148 C   0  0  0  0  0  0  0  0  0  0  0  0
    4.1534    1.4374   -0.2020 C   0  0  0  0  0  0  0  0  0  0  0  0
    4.6064   -0.9242    0.0327 C   0  0  0  0  0  0  0  0  0  0  0  0
   -5.5902   -0.5026   -0.4983 C   0  0  0  0  0  0  0  0  0  0  0  0
   -5.1961    0.3156    1.5043 C   0  0  0  0  0  0  0  0  0  0  0  0
    5.0130    1.7082    0.8627 C   0  0  0  0  0  0  0  0  0  0  0  0
    5.4660   -0.6534    1.0974 C   0  0  0  0  0  0  0  0  0  0  0  0
    5.6691    0.6627    1.5126 C   0  0  0  0  0  0  0  0  0  0  0  0
   -3.0800    2.6873   -0.7845 C   0  0  0  0  0  0  0  0  0  0  0  0
    3.2044    0.4514   -2.6106 H   0  0  0  0  0  0  0  0  0  0  0  0
    3.2215   -1.2296   -2.1226 H   0  0  0  0  0  0  0  0  0  0  0  0
   -0.2319    1.2202   -0.2038 H   0  0  0  0  0  0  0  0  0  0  0  0
   -3.4308   -2.5744   -0.1982 H   0  0  0  0  0  0  0  0  0  0  0  0
   -1.0796   -2.9925   -0.7132 H   0  0  0  0  0  0  0  0  0  0  0  0
    1.1814    0.7657   -1.5912 H   0  0  0  0  0  0  0  0  0  0  0  0
    4.4589   -1.9557   -0.2758 H   0  0  0  0  0  0  0  0  0  0  0  0
   -5.6183   -0.9201   -1.4954 H   0  0  0  0  0  0  0  0  0  0  0  0
   -4.7493    0.6708    2.4224 H   0  0  0  0  0  0  0  0  0  0  0  0
    5.1822    2.7283    1.1983 H   0  0  0  0  0  0  0  0  0  0  0  0
   -7.6873   -0.2153   -0.1814 H   0  0  0  0  0  0  0  0  0  0  0  0
    6.3383    0.8729    2.3417 H   0  0  0  0  0  0  0  0  0  0  0  0
   -3.9156    2.2155   -1.3103 H   0  0  0  0  0  0  0  0  0  0  0  0
   -2.2469    2.8489   -1.4760 H   0  0  0  0  0  0  0  0  0  0  0  0
   -3.4109    3.6579   -0.4049 H   0  0  0  0  0  0  0  0  0  0  0  0
  1 18  1  0  0  0  0
  2 23  1  0  0  0  0
  3 10  1  0  0  0  0
  3 25  1  0  0  0  0
  4 17  2  0  0  0  0
  5 11  1  0  0  0  0
  5 17  1  0  0  0  0
  5 31  1  0  0  0  0
  6  7  1  0  0  0  0
  6 20  1  0  0  0  0
  6 36  1  0  0  0  0
  7 21  2  0  0  0  0
  8 10  2  0  0  0  0
  8 13  1  0  0  0  0
  8 14  1  0  0  0  0
  9 12  2  0  0  0  0
  9 15  1  0  0  0  0
  9 17  1  0  0  0  0
 10 12  1  0  0  0  0
 11 16  1  0  0  0  0
 11 26  1  0  0  0  0
 11 27  1  0  0  0  0
 12 28  1  0  0  0  0
 13 20  2  0  0  0  0
 13 21  1  0  0  0  0
 14 15  2  0  0  0  0
 14 29  1  0  0  0  0
 15 30  1  0  0  0  0
 16 18  2  0  0  0  0
 16 19  1  0  0  0  0
 18 22  1  0  0  0  0
 19 23  2  0  0  0  0
 19 32  1  0  0  0  0
 20 33  1  0  0  0  0
 21 34  1  0  0  0  0
 22 24  2  0  0  0  0
 22 35  1  0  0  0  0
 23 24  1  0  0  0  0
 24 37  1  0  0  0  0
 25 38  1  0  0  0  0
 25 39  1  0  0  0  0
 25 40  1  0  0  0  0
M  END
> <PUBCHEM_COMPOUND_CID>
85470577

> <PUBCHEM_CONFORMER_RMSD>
0.8

> <PUBCHEM_CONFORMER_DIVERSEORDER>
1
69
46
53
58
56
21
73
34
57
28
76
51
44
49
11
71
62
54
3
48
35
74
64
13
50
40
41
70
23
66
38
65
39
67
25
61
2
42
32
36
37
16
7
43
33
9
59
17
55
31
20
30
19
77
5
26
22
72
52
12
60
18
75
14
47
68
8
4
63
29
27
10
15
45
6
24

> <PUBCHEM_MMFF94_PARTIAL_CHARGES>
35
1 -0.18
10 0.08
11 0.44
12 -0.15
13 -0.05
14 -0.15
15 -0.15
16 -0.14
17 0.54
18 0.18
19 -0.15
2 -0.19
20 -0.3
21 0.14
22 -0.15
23 0.19
24 -0.15
25 0.28
28 0.15
29 0.15
3 -0.36
30 0.15
31 0.37
32 0.15
33 0.15
34 0.15
35 0.15
36 0.27
37 0.15
4 -0.57
5 -0.73
6 0.3
7 -0.71
8 0.05
9 0.09

> <PUBCHEM_EFFECTIVE_ROTOR_COUNT>
6

> <PUBCHEM_PHARMACOPHORE_FEATURES>
8
1 3 acceptor
1 4 acceptor
1 5 donor
1 6 donor
1 7 acceptor
5 6 7 13 20 21 rings
6 16 18 19 22 23 24 rings
6 8 9 10 12 14 15 rings

> <PUBCHEM_HEAVY_ATOM_COUNT>
25

> <PUBCHEM_ATOM_DEF_STEREO_COUNT>
0

> <PUBCHEM_ATOM_UDEF_STEREO_COUNT>
0

> <PUBCHEM_BOND_DEF_STEREO_COUNT>
0

> <PUBCHEM_BOND_UDEF_STEREO_COUNT>
0

> <PUBCHEM_ISOTOPIC_ATOM_COUNT>
0

> <PUBCHEM_COMPONENT_COUNT>
1

> <PUBCHEM_CACTVS_TAUTO_COUNT>
9

> <PUBCHEM_CONFORMER_ID>
05182D7100000001

> <PUBCHEM_MMFF94_ENERGY>
69.2036

> <PUBCHEM_FEATURE_SELFOVERLAP>
40.597

> <PUBCHEM_SHAPE_FINGERPRINT>
10 15 18409732888873792816
12166972 35 18272939293541815776
12403259 415 18271529706422966740
12422481 6 18187082849691459301
12596602 18 17168146792457613816
12616971 3 18261671566440305366
12633257 1 18341051912530855604
12925494 130 18050845520658215697
13150687 139 9295000324492080016
13533116 47 17676488358745526136
13668630 136 15068625972059693730
13685833 64 14634865353931980530
13782708 43 15647626682750171899
13914758 101 16298660600016383325
14341114 176 18333448751212496464
15348495 7 17677338336878454985
17349148 13 17385733507927878343
18222031 100 13190341270794924094
21150785 3 13758066386500073625
21315764 268 18410004447066929156
21792934 111 18334861563925845961
21859007 373 17750784459657664629
22149856 69 17773622523612103099
23016692 55 12251899287441651066
23559900 14 18201177510970715438
23569914 2 16052629346351469609
3472631 163 15984817203448302400
34797466 226 14836132095251649773
3680242 22 18410580590964347872
4340502 62 17967540073202796579
465052 167 14707206621949087770
5104073 3 18336551641271063683
8509985 295 18411980295516462084
960060 61 8502654805543014952

> <PUBCHEM_SHAPE_MULTIPOLES>
482.4
16.68
2.32
1.38
4.18
0.94
-0.21
1.71
-7.83
-1.12
0.49
-1.15
0.04
-0.72

> <PUBCHEM_SHAPE_SELFOVERLAP>
1043.622

> <PUBCHEM_SHAPE_VOLUME>
266.2

> <PUBCHEM_COORDINATE_TYPE>
2
5
10

$$$$
118662888
  -OEChem-05102415123D

 54 57  0     0  0  0  0  0  0999 V2000
    6.2258    0.6308    0.4015 O   0  0  0  0  0  0  0  0  0  0  0  0
   -3.7865    0.7976   -1.8911 O   0  0  0  0  0  0  0  0  0  0  0  0
   -0.5374   -3.5400    0.4488 O   0  0  0  0  0  0  0  0  0  0  0  0
    4.3102    1.5332   -0.5434 N   0  0  0  0  0  0  0  0  0  0  0  0
    0.3178   -2.0118   -1.0711 N   0  0  0  0  0  0  0  0  0  0  0  0
   -6.6474    2.2482    1.3532 N   0  0  0  0  0  0  0  0  0  0  0  0
   -7.3423    1.7123    0.3352 N   0  0  0  0  0  0  0  0  0  0  0  0
    4.6431    3.7617    0.3453 C   0  0  0  0  0  0  0  0  0  0  0  0
    3.3127    4.4343    0.5421 C   0  0  0  0  0  0  0  0  0  0  0  0
    4.5084    5.2426    0.1221 C   0  0  0  0  0  0  0  0  0  0  0  0
    4.8566    2.8444   -0.8104 C   0  0  0  0  0  0  0  0  0  0  0  0
    5.0393    0.4979    0.0528 C   0  0  0  0  0  0  0  0  0  0  0  0
    4.3551   -0.7727    0.2323 C   0  0  0  0  0  0  0  0  0  0  0  0
    3.3128   -1.1307   -0.6227 C   0  0  0  0  0  0  0  0  0  0  0  0
    4.7408   -1.6334    1.2602 C   0  0  0  0  0  0  0  0  0  0  0  0
    2.6561   -2.3492   -0.4501 C   0  0  0  0  0  0  0  0  0  0  0  0
    1.5333   -2.7344   -1.3696 C   0  0  0  0  0  0  0  0  0  0  0  0
    4.0840   -2.8518    1.4330 C   0  0  0  0  0  0  0  0  0  0  0  0
    3.0418   -3.2098    0.5777 C   0  0  0  0  0  0  0  0  0  0  0  0
   -1.8328   -1.6367    0.0041 C   0  0  0  0  0  0  0  0  0  0  0  0
   -0.6516   -2.4670   -0.1697 C   0  0  0  0  0  0  0  0  0  0  0  0
   -4.1011   -0.0469    0.3372 C   0  0  0  0  0  0  0  0  0  0  0  0
   -3.3928   -0.0088   -0.8640 C   0  0  0  0  0  0  0  0  0  0  0  0
   -2.2587   -0.8036   -1.0305 C   0  0  0  0  0  0  0  0  0  0  0  0
   -2.5410   -1.6749    1.2054 C   0  0  0  0  0  0  0  0  0  0  0  0
   -3.6750   -0.8798    1.3720 C   0  0  0  0  0  0  0  0  0  0  0  0
   -5.2739    0.7630    0.5294 C   0  0  0  0  0  0  0  0  0  0  0  0
   -5.4024    1.7142    1.5119 C   0  0  0  0  0  0  0  0  0  0  0  0
   -6.4982    0.8057   -0.1642 C   0  0  0  0  0  0  0  0  0  0  0  0
   -2.9966    0.7652   -3.0774 C   0  0  0  0  0  0  0  0  0  0  0  0
    5.1811    3.4429    1.2310 H   0  0  0  0  0  0  0  0  0  0  0  0
    2.9543    4.5536    1.5572 H   0  0  0  0  0  0  0  0  0  0  0  0
    2.5338    4.2697   -0.1922 H   0  0  0  0  0  0  0  0  0  0  0  0
    4.9515    5.9051    0.8555 H   0  0  0  0  0  0  0  0  0  0  0  0
    4.5301    5.6190   -0.8932 H   0  0  0  0  0  0  0  0  0  0  0  0
    5.9284    2.7538   -1.0164 H   0  0  0  0  0  0  0  0  0  0  0  0
    4.3687    3.2157   -1.7183 H   0  0  0  0  0  0  0  0  0  0  0  0
    3.3249    1.4070   -0.7498 H   0  0  0  0  0  0  0  0  0  0  0  0
    3.0096   -0.4954   -1.4506 H   0  0  0  0  0  0  0  0  0  0  0  0
    5.5473   -1.3707    1.9399 H   0  0  0  0  0  0  0  0  0  0  0  0
    1.8055   -2.5124   -2.4077 H   0  0  0  0  0  0  0  0  0  0  0  0
    1.3343   -3.8109   -1.3144 H   0  0  0  0  0  0  0  0  0  0  0  0
    4.3831   -3.5212    2.2342 H   0  0  0  0  0  0  0  0  0  0  0  0
    2.5379   -4.1613    0.7252 H   0  0  0  0  0  0  0  0  0  0  0  0
    0.2253   -1.0965   -1.4986 H   0  0  0  0  0  0  0  0  0  0  0  0
   -1.7115   -0.8312   -1.9639 H   0  0  0  0  0  0  0  0  0  0  0  0
   -2.2233   -2.3149    2.0245 H   0  0  0  0  0  0  0  0  0  0  0  0
   -4.2142   -0.9280    2.3153 H   0  0  0  0  0  0  0  0  0  0  0  0
   -4.7394    2.0578    2.2940 H   0  0  0  0  0  0  0  0  0  0  0  0
   -6.8147    0.2153   -1.0126 H   0  0  0  0  0  0  0  0  0  0  0  0
   -7.0852    2.9781    1.9012 H   0  0  0  0  0  0  0  0  0  0  0  0
   -3.4476    1.4734   -3.7807 H   0  0  0  0  0  0  0  0  0  0  0  0
   -3.0290   -0.2179   -3.5597 H   0  0  0  0  0  0  0  0  0  0  0  0
   -1.9739    1.1135   -2.8955 H   0  0  0  0  0  0  0  0  0  0  0  0
  1 12  2  0  0  0  0
  2 23  1  0  0  0  0
  2 30  1  0  0  0  0
  3 21  2  0  0  0  0
  4 11  1  0  0  0  0
  4 12  1  0  0  0  0
  4 38  1  0  0  0  0
  5 17  1  0  0  0  0
  5 21  1  0  0  0  0
  5 45  1  0  0  0  0
  6  7  1  0  0  0  0
  6 28  1  0  0  0  0
  6 51  1  0  0  0  0
  7 29  2  0  0  0  0
  8  9  1  0  0  0  0
  8 10  1  0  0  0  0
  8 11  1  0  0  0  0
  8 31  1  0  0  0  0
  9 10  1  0  0  0  0
  9 32  1  0  0  0  0
  9 33  1  0  0  0  0
 10 34  1  0  0  0  0
 10 35  1  0  0  0  0
 11 36  1  0  0  0  0
 11 37  1  0  0  0  0
 12 13  1  0  0  0  0
 13 14  1  0  0  0  0
 13 15  2  0  0  0  0
 14 16  2  0  0  0  0
 14 39  1  0  0  0  0
 15 18  1  0  0  0  0
 15 40  1  0  0  0  0
 16 17  1  0  0  0  0
 16 19  1  0  0  0  0
 17 41  1  0  0  0  0
 17 42  1  0  0  0  0
 18 19  2  0  0  0  0
 18 43  1  0  0  0  0
 19 44  1  0  0  0  0
 20 21  1  0  0  0  0
 20 24  2  0  0  0  0
 20 25  1  0  0  0  0
 22 23  2  0  0  0  0
 22 26  1  0  0  0  0
 22 27  1  0  0  0  0
 23 24  1  0  0  0  0
 24 46  1  0  0  0  0
 25 26  2  0  0  0  0
 25 47  1  0  0  0  0
 26 48  1  0  0  0  0
 27 28  2  0  0  0  0
 27 29  1  0  0  0  0
 28 49  1  0  0  0  0
 29 50  1  0  0  0  0
 30 52  1  0  0  0  0
 30 53  1  0  0  0  0
 30 54  1  0  0  0  0
M  END
> <PUBCHEM_COMPOUND_CID>
118662888

> <PUBCHEM_CONFORMER_RMSD>
1

> <PUBCHEM_CONFORMER_DIVERSEORDER>
64
116
95
100
53
114
44
25
93
110
125
35
11
113
28
75
13
105
24
134
99
106
97
20
59
137
69
121
45
109
46
108
5
50
131
81
101
31
94
89
115
71
30
66
102
90
48
117
119
37
124
65
1
14
58
107
16
47
82
135
104
61
118
130
19
120
42
23
80
98
74
122
57
40
21
6
86
29
123
4
138
128
76
22
85
77
84
111
26
52
10
15
17
55
60
91
54
43
133
112
126
12
72
136
36
67
62
129
96
78
79
38
92
87
8
27
103
56
32
132
70
88
83
127
51
33
39
63
9
73
41
7
34
68
2
49
3
18

> <PUBCHEM_MMFF94_PARTIAL_CHARGES>
47
1 -0.57
10 -0.2
11 0.4
12 0.54
13 0.09
14 -0.15
15 -0.15
16 -0.14
17 0.44
18 -0.15
19 -0.15
2 -0.36
20 0.09
21 0.54
22 0.05
23 0.08
24 -0.15
25 -0.15
26 -0.15
27 -0.05
28 -0.3
29 0.14
3 -0.57
30 0.28
31 0.1
32 0.1
33 0.1
34 0.1
35 0.1
38 0.37
39 0.15
4 -0.73
40 0.15
43 0.15
44 0.15
45 0.37
46 0.15
47 0.15
48 0.15
49 0.15
5 -0.73
50 0.15
51 0.27
6 0.3
7 -0.71
8 -0.19
9 -0.2

> <PUBCHEM_EFFECTIVE_ROTOR_COUNT>
10.6

> <PUBCHEM_PHARMACOPHORE_FEATURES>
10
1 1 acceptor
1 2 acceptor
1 3 acceptor
1 4 donor
1 5 donor
1 6 donor
1 7 acceptor
5 6 7 27 28 29 rings
6 13 14 15 16 18 19 rings
6 20 22 23 24 25 26 rings

> <PUBCHEM_HEAVY_ATOM_COUNT>
30

> <PUBCHEM_ATOM_DEF_STEREO_COUNT>
0

> <PUBCHEM_ATOM_UDEF_STEREO_COUNT>
0

> <PUBCHEM_BOND_DEF_STEREO_COUNT>
0

> <PUBCHEM_BOND_UDEF_STEREO_COUNT>
0

> <PUBCHEM_ISOTOPIC_ATOM_COUNT>
0

> <PUBCHEM_COMPONENT_COUNT>
1

> <PUBCHEM_CACTVS_TAUTO_COUNT>
18

> <PUBCHEM_CONFORMER_ID>
0712A6E800000040

> <PUBCHEM_MMFF94_ENERGY>
84.2305

> <PUBCHEM_FEATURE_SELFOVERLAP>
50.748

> <PUBCHEM_SHAPE_FINGERPRINT>
11479125 193 18267029551169957928
11505856 67 17839739601710714110
11578821 258 18198345045202991201
12422481 6 17676772071237233413
12655387 17 14346059903561713101
12925494 130 18337392763476761881
13944108 23 18342466893981247296
14117953 113 18342745087918954796
14251764 75 18339081622185715380
14400156 260 18334856135583173352
19302320 297 18124608478779306521
20691028 202 18341611555111669128
21315764 268 18188770531235936359
21792934 111 17023755490615957317
22122407 14 18339935856546540097
23569914 152 9148676023818465563
3146121 3 18269560619396695619
345986 75 12829484839876877326
397830 11 18336000705180186387
5104073 3 18113624473587462755
5109719 28 18339658763011295811
57724786 102 18412262814001524614
5951187 136 18201169810183933372
7970288 3 8430312420354694537

> <PUBCHEM_SHAPE_MULTIPOLES>
579.85
17.69
5.7
1.67
13.5
5.74
0.9
15.53
-4.52
-10.84
-1.07
1.82
-0.03
-1.16

> <PUBCHEM_SHAPE_SELFOVERLAP>
1253.035

> <PUBCHEM_SHAPE_VOLUME>
319

> <PUBCHEM_COORDINATE_TYPE>
2
5
10

$$$$
90354066
  -OEChem-05102415123D

 40 42  0     0  0  0  0  0  0999 V2000
    2.7252    1.7939   -0.9914 O   0  0  0  0  0  0  0  0  0  0  0  0
   -1.8356   -1.9546   -1.2803 O   0  0  0  0  0  0  0  0  0  0  0  0
   -2.0980    0.3487   -1.2260 N   0  0  0  0  0  0  0  0  0  0  0  0
    5.9073   -0.1642    1.6259 N   0  0  0  0  0  0  0  0  0  0  0  0
    6.3767   -0.0029    0.3770 N   0  0  0  0  0  0  0  0  0  0  0  0
    2.7284   -0.3933    0.0054 C   0  0  0  0  0  0  0  0  0  0  0  0
    0.0504   -0.6775   -0.7232 C   0  0  0  0  0  0  0  0  0  0  0  0
    2.0767    0.6374   -0.6720 C   0  0  0  0  0  0  0  0  0  0  0  0
    0.7377    0.4952   -1.0363 C   0  0  0  0  0  0  0  0  0  0  0  0
    4.1079   -0.2670    0.3918 C   0  0  0  0  0  0  0  0  0  0  0  0
    2.0411   -1.5662    0.3182 C   0  0  0  0  0  0  0  0  0  0  0  0
   -3.5015    0.3657   -1.5713 C   0  0  0  0  0  0  0  0  0  0  0  0
    0.7021   -1.7083   -0.0459 C   0  0  0  0  0  0  0  0  0  0  0  0
   -1.3461   -0.8252   -1.1012 C   0  0  0  0  0  0  0  0  0  0  0  0
   -4.3800    0.3026   -0.3555 C   0  0  0  0  0  0  0  0  0  0  0  0
    4.5544   -0.3263    1.6895 C   0  0  0  0  0  0  0  0  0  0  0  0
    5.2730   -0.0665   -0.3725 C   0  0  0  0  0  0  0  0  0  0  0  0
   -4.7876   -0.9332    0.1470 C   0  0  0  0  0  0  0  0  0  0  0  0
   -4.7888    1.4797    0.2714 C   0  0  0  0  0  0  0  0  0  0  0  0
   -5.6039   -0.9918    1.2768 C   0  0  0  0  0  0  0  0  0  0  0  0
   -5.6051    1.4210    1.4011 C   0  0  0  0  0  0  0  0  0  0  0  0
   -6.0124    0.1852    1.9039 C   0  0  0  0  0  0  0  0  0  0  0  0
    2.6779    2.8476   -0.0323 C   0  0  0  0  0  0  0  0  0  0  0  0
    0.2709    1.3049   -1.5905 H   0  0  0  0  0  0  0  0  0  0  0  0
    2.5305   -2.3836    0.8428 H   0  0  0  0  0  0  0  0  0  0  0  0
   -3.7215   -0.4708   -2.2450 H   0  0  0  0  0  0  0  0  0  0  0  0
   -3.6905    1.2862   -2.1353 H   0  0  0  0  0  0  0  0  0  0  0  0
    0.1834   -2.6283    0.2109 H   0  0  0  0  0  0  0  0  0  0  0  0
   -1.6828    1.2451   -0.9956 H   0  0  0  0  0  0  0  0  0  0  0  0
    4.0489   -0.4640    2.6354 H   0  0  0  0  0  0  0  0  0  0  0  0
    5.3681    0.0359   -1.4444 H   0  0  0  0  0  0  0  0  0  0  0  0
   -4.4803   -1.8583   -0.3328 H   0  0  0  0  0  0  0  0  0  0  0  0
   -4.4766    2.4485   -0.1094 H   0  0  0  0  0  0  0  0  0  0  0  0
    6.5686   -0.1527    2.3923 H   0  0  0  0  0  0  0  0  0  0  0  0
   -5.9218   -1.9539    1.6677 H   0  0  0  0  0  0  0  0  0  0  0  0
   -5.9230    2.3374    1.8897 H   0  0  0  0  0  0  0  0  0  0  0  0
   -6.6479    0.1396    2.7835 H   0  0  0  0  0  0  0  0  0  0  0  0
    3.2793    3.6796   -0.4086 H   0  0  0  0  0  0  0  0  0  0  0  0
    3.0915    2.5252    0.9282 H   0  0  0  0  0  0  0  0  0  0  0  0
    1.6483    3.1940    0.1018 H   0  0  0  0  0  0  0  0  0  0  0  0
  1  8  1  0  0  0  0
  1 23  1  0  0  0  0
  2 14  2  0  0  0  0
  3 12  1  0  0  0  0
  3 14  1  0  0  0  0
  3 29  1  0  0  0  0
  4  5  1  0  0  0  0
  4 16  1  0  0  0  0
  4 34  1  0  0  0  0
  5 17  2  0  0  0  0
  6  8  2  0  0  0  0
  6 10  1  0  0  0  0
  6 11  1  0  0  0  0
  7  9  2  0  0  0  0
  7 13  1  0  0  0  0
  7 14  1  0  0  0  0
  8  9  1  0  0  0  0
  9 24  1  0  0  0  0
 10 16  2  0  0  0  0
 10 17  1  0  0  0  0
 11 13  2  0  0  0  0
 11 25  1  0  0  0  0
 12 15  1  0  0  0  0
 12 26  1  0  0  0  0
 12 27  1  0  0  0  0
 13 28  1  0  0  0  0
 15 18  2  0  0  0  0
 15 19  1  0  0  0  0
 16 30  1  0  0  0  0
 17 31  1  0  0  0  0
 18 20  1  0  0  0  0
 18 32  1  0  0  0  0
 19 21  2  0  0  0  0
 19 33  1  0  0  0  0
 20 22  2  0  0  0  0
 20 35  1  0  0  0  0
 21 22  1  0  0  0  0
 21 36  1  0  0  0  0
 22 37  1  0  0  0  0
 23 38  1  0  0  0  0
 23 39  1  0  0  0  0
 23 40  1  0  0  0  0
M  END
> <PUBCHEM_COMPOUND_CID>
90354066

> <PUBCHEM_CONFORMER_RMSD>
0.8

> <PUBCHEM_CONFORMER_DIVERSEORDER>
1
3
17
21
19
14
7
15
4
6
13
18
10
16
12
20
5
8
9
11
2

> <PUBCHEM_MMFF94_PARTIAL_CHARGES>
35
1 -0.36
10 -0.05
11 -0.15
12 0.44
13 -0.15
14 0.54
15 -0.14
16 -0.3
17 0.14
18 -0.15
19 -0.15
2 -0.57
20 -0.15
21 -0.15
22 -0.15
23 0.28
24 0.15
25 0.15
28 0.15
29 0.37
3 -0.73
30 0.15
31 0.15
32 0.15
33 0.15
34 0.27
35 0.15
36 0.15
37 0.15
4 0.3
5 -0.71
6 0.05
7 0.09
8 0.08
9 -0.15

> <PUBCHEM_EFFECTIVE_ROTOR_COUNT>
6

> <PUBCHEM_PHARMACOPHORE_FEATURES>
8
1 1 acceptor
1 2 acceptor
1 3 donor
1 4 donor
1 5 acceptor
5 4 5 10 16 17 rings
6 15 18 19 20 21 22 rings
6 6 7 8 9 11 13 rings

> <PUBCHEM_HEAVY_ATOM_COUNT>
23

> <PUBCHEM_ATOM_DEF_STEREO_COUNT>
0

> <PUBCHEM_ATOM_UDEF_STEREO_COUNT>
0

> <PUBCHEM_BOND_DEF_STEREO_COUNT>
0

> <PUBCHEM_BOND_UDEF_STEREO_COUNT>
0

> <PUBCHEM_ISOTOPIC_ATOM_COUNT>
0

> <PUBCHEM_COMPONENT_COUNT>
1

> <PUBCHEM_CACTVS_TAUTO_COUNT>
7

> <PUBCHEM_CONFORMER_ID>
0562B19200000001

> <PUBCHEM_MMFF94_ENERGY>
66.7396

> <PUBCHEM_FEATURE_SELFOVERLAP>
40.597

> <PUBCHEM_SHAPE_FINGERPRINT>
10447042 23 9943531799688877996
105312 117 15410898466214867125
10906281 52 18339646745898451756
11545043 162 16588015797537077397
11646440 116 18413668007215674112
11796584 16 15286181875255299738
12403259 118 18413109451156266637
12596602 18 17967250879737156600
12616971 3 18342459278856077429
12633257 1 17968103036009061955
12670543 26 12319740267240168438
13140716 1 18262511628142489846
13583140 156 17822279164077460695
13668630 136 12540703621922478137
13690498 29 11742965085098790885
13782708 43 14996271484539561680
14341114 176 18336832987435561267
14341114 328 18340219556880642953
14576447 43 8286200543593141876
14848160 23 13984665862611745243
14849402 71 18264211481783722020
14950920 106 18041006167632257433
14955137 171 18335704910375672350
15003188 33 11383294971517852843
15081414 286 18341329999094536724
15188451 53 17095530630213660371
15238133 3 17846786225424199496
15475509 35 16153693328968032864
15475509 8 18272103669242227916
15716309 27 16588025701705138419
15880784 105 14418140603700616925
1601671 61 18411409601821200990
17780758 139 17603589608738494025
18222031 100 13840264822992733735
18769570 83 16773792593327335442
18785283 64 17967819400606013228
200 152 8934999282822311543
20281389 69 16845569807774050363
20567600 247 14201662127780488744
21267235 1 17894906288533843458
21623969 137 16950561056561542642
21637258 2 14201387279806004616
21756936 100 17632572752120642207
21857420 4 12660140017766823795
22289505 5 12535350082204922138
23198884 109 13902185976758924905
23402539 116 15554439712946057590
23402655 69 11815903340462605919
23522609 53 16879378647640347053
23559900 14 9367050152116755111
23569943 247 18056755417433555150
25147074 1 18191023606644548006
2838139 119 14908178634001443515
2916195 48 16845568725589971699
38570 142 18120398667821184716
392239 28 18186529800027798361
4098825 35 12535627185479737127
465052 167 17313103038768222218
5104073 3 18265042716805016906
5283173 99 14261360132515645555
5718773 13 15358278090578001603
7226269 152 17203609280942913041
7495541 125 16732701653775364876
8863177 126 17240488060363262642
960060 61 9943812170658429433

> <PUBCHEM_SHAPE_MULTIPOLES>
446.65
16.06
1.84
1.59
3.6
0.78
-0.35
1.86
-9.13
-0.09
0.12
0.98
-0.02
-0.77

> <PUBCHEM_SHAPE_SELFOVERLAP>
972.597

> <PUBCHEM_SHAPE_VOLUME>
244

> <PUBCHEM_COORDINATE_TYPE>
2
5
10

$$$$
85470508
  -OEChem-05102415123D

 44 47  0     0  0  0  0  0  0999 V2000
   -6.0630   -1.1849    1.4647 S   0  0  0  0  0  0  0  0  0  0  0  0
    2.8222   -1.9439    0.2737 O   0  0  0  0  0  0  0  0  0  0  0  0
    0.2266    3.2848   -0.6034 O   0  0  0  0  0  0  0  0  0  0  0  0
   -0.7026    1.6361    0.7375 N   0  0  0  0  0  0  0  0  0  0  0  0
   -6.0789   -1.2432   -1.1137 N   0  0  0  0  0  0  0  0  0  0  0  0
    7.3229   -1.2127    0.4287 N   0  0  0  0  0  0  0  0  0  0  0  0
    7.0200   -1.9836   -0.6296 N   0  0  0  0  0  0  0  0  0  0  0  0
   -7.7070   -2.5977   -0.0687 N   0  0  0  0  0  0  0  0  0  0  0  0
   -3.0761    1.3141    0.2931 C   0  0  0  0  0  0  0  0  0  0  0  0
   -2.0173    2.2165    0.8344 C   0  0  0  0  0  0  0  0  0  0  0  0
    4.0350    0.1051   -0.0567 C   0  0  0  0  0  0  0  0  0  0  0  0
    1.6139    1.4905   -0.0085 C   0  0  0  0  0  0  0  0  0  0  0  0
   -3.9102    0.6256    1.1773 C   0  0  0  0  0  0  0  0  0  0  0  0
   -4.8978   -0.2166    0.6414 C   0  0  0  0  0  0  0  0  0  0  0  0
    2.8377   -0.5887    0.1205 C   0  0  0  0  0  0  0  0  0  0  0  0
   -5.0615   -0.3784   -0.7378 C   0  0  0  0  0  0  0  0  0  0  0  0
   -3.2199    1.1692   -1.0824 C   0  0  0  0  0  0  0  0  0  0  0  0
    1.6273    0.1041    0.1446 C   0  0  0  0  0  0  0  0  0  0  0  0
    0.3247    2.2284    0.0154 C   0  0  0  0  0  0  0  0  0  0  0  0
    4.0215    1.4915   -0.2094 C   0  0  0  0  0  0  0  0  0  0  0  0
    2.8111    2.1842   -0.1855 C   0  0  0  0  0  0  0  0  0  0  0  0
    5.2939   -0.5896   -0.0864 C   0  0  0  0  0  0  0  0  0  0  0  0
   -4.2050    0.3291   -1.6092 C   0  0  0  0  0  0  0  0  0  0  0  0
    6.3228   -0.3603    0.7942 C   0  0  0  0  0  0  0  0  0  0  0  0
   -6.6680   -1.7212   -0.0427 C   0  0  0  0  0  0  0  0  0  0  0  0
    5.7792   -1.5984   -0.9399 C   0  0  0  0  0  0  0  0  0  0  0  0
    1.5485   -2.5599    0.4485 C   0  0  0  0  0  0  0  0  0  0  0  0
   -2.0548    3.1834    0.3193 H   0  0  0  0  0  0  0  0  0  0  0  0
   -2.1893    2.4275    1.8964 H   0  0  0  0  0  0  0  0  0  0  0  0
   -3.8016    0.7332    2.2527 H   0  0  0  0  0  0  0  0  0  0  0  0
   -0.5333    0.8007    1.2875 H   0  0  0  0  0  0  0  0  0  0  0  0
   -2.5678    1.7080   -1.7657 H   0  0  0  0  0  0  0  0  0  0  0  0
    0.6770   -0.4059    0.2357 H   0  0  0  0  0  0  0  0  0  0  0  0
    4.9426    2.0520   -0.3525 H   0  0  0  0  0  0  0  0  0  0  0  0
    2.8210    3.2646   -0.3032 H   0  0  0  0  0  0  0  0  0  0  0  0
   -4.3085    0.2233   -2.6854 H   0  0  0  0  0  0  0  0  0  0  0  0
    6.4374    0.3140    1.6317 H   0  0  0  0  0  0  0  0  0  0  0  0
    5.2841   -2.0711   -1.7766 H   0  0  0  0  0  0  0  0  0  0  0  0
    8.2344   -1.3208    0.8558 H   0  0  0  0  0  0  0  0  0  0  0  0
    1.7269   -3.6342    0.5658 H   0  0  0  0  0  0  0  0  0  0  0  0
    1.0554   -2.2226    1.3667 H   0  0  0  0  0  0  0  0  0  0  0  0
    0.9162   -2.4429   -0.4384 H   0  0  0  0  0  0  0  0  0  0  0  0
   -8.0953   -2.9404   -0.9412 H   0  0  0  0  0  0  0  0  0  0  0  0
   -8.1355   -2.9442    0.7834 H   0  0  0  0  0  0  0  0  0  0  0  0
  1 14  1  0  0  0  0
  1 25  1  0  0  0  0
  2 15  1  0  0  0  0
  2 27  1  0  0  0  0
  3 19  2  0  0  0  0
  4 10  1  0  0  0  0
  4 19  1  0  0  0  0
  4 31  1  0  0  0  0
  5 16  1  0  0  0  0
  5 25  2  0  0  0  0
  6  7  1  0  0  0  0
  6 24  1  0  0  0  0
  6 39  1  0  0  0  0
  7 26  2  0  0  0  0
  8 25  1  0  0  0  0
  8 43  1  0  0  0  0
  8 44  1  0  0  0  0
  9 10  1  0  0  0  0
  9 13  2  0  0  0  0
  9 17  1  0  0  0  0
 10 28  1  0  0  0  0
 10 29  1  0  0  0  0
 11 15  2  0  0  0  0
 11 20  1  0  0  0  0
 11 22  1  0  0  0  0
 12 18  2  0  0  0  0
 12 19  1  0  0  0  0
 12 21  1  0  0  0  0
 13 14  1  0  0  0  0
 13 30  1  0  0  0  0
 14 16  2  0  0  0  0
 15 18  1  0  0  0  0
 16 23  1  0  0  0  0
 17 23  2  0  0  0  0
 17 32  1  0  0  0  0
 18 33  1  0  0  0  0
 20 21  2  0  0  0  0
 20 34  1  0  0  0  0
 21 35  1  0  0  0  0
 22 24  2  0  0  0  0
 22 26  1  0  0  0  0
 23 36  1  0  0  0  0
 24 37  1  0  0  0  0
 26 38  1  0  0  0  0
 27 40  1  0  0  0  0
 27 41  1  0  0  0  0
 27 42  1  0  0  0  0
M  END
> <PUBCHEM_COMPOUND_CID>
85470508

> <PUBCHEM_CONFORMER_RMSD>
0.8

> <PUBCHEM_CONFORMER_DIVERSEORDER>
19
26
32
12
49
3
39
47
14
34
18
35
51
11
13
36
15
31
37
1
30
41
40
38
21
43
48
42
20
28
24
45
27
8
29
22
50
44
33
16
17
6
7
23
4
10
2
5
46
25
9

> <PUBCHEM_MMFF94_PARTIAL_CHARGES>
39
1 -0.08
10 0.44
11 0.05
12 0.09
13 -0.15
14 0.04
15 0.08
16 0.23
17 -0.15
18 -0.15
19 0.54
2 -0.36
20 -0.15
21 -0.15
22 -0.05
23 -0.15
24 -0.3
25 0.46
26 0.14
27 0.28
3 -0.57
30 0.15
31 0.37
32 0.15
33 0.15
34 0.15
35 0.15
36 0.15
37 0.15
38 0.15
39 0.27
4 -0.73
43 0.4
44 0.4
5 -0.57
6 0.3
7 -0.71
8 -0.88
9 -0.14

> <PUBCHEM_EFFECTIVE_ROTOR_COUNT>
6

> <PUBCHEM_PHARMACOPHORE_FEATURES>
11
1 2 acceptor
1 3 acceptor
1 4 donor
1 6 donor
1 7 acceptor
1 8 donor
3 5 8 25 cation
5 1 5 14 16 25 rings
5 6 7 22 24 26 rings
6 11 12 15 18 20 21 rings
6 9 13 14 16 17 23 rings

> <PUBCHEM_HEAVY_ATOM_COUNT>
27

> <PUBCHEM_ATOM_DEF_STEREO_COUNT>
0

> <PUBCHEM_ATOM_UDEF_STEREO_COUNT>
0

> <PUBCHEM_BOND_DEF_STEREO_COUNT>
0

> <PUBCHEM_BOND_UDEF_STEREO_COUNT>
0

> <PUBCHEM_ISOTOPIC_ATOM_COUNT>
0

> <PUBCHEM_COMPONENT_COUNT>
1

> <PUBCHEM_CACTVS_TAUTO_COUNT>
36

> <PUBCHEM_CONFORMER_ID>
05182D2C00000013

> <PUBCHEM_MMFF94_ENERGY>
71.5449

> <PUBCHEM_FEATURE_SELFOVERLAP>
55.893

> <PUBCHEM_SHAPE_FINGERPRINT>
10740516 88 17825964877916750803
11211813 128 18343302549252428714
11963148 33 18335979754040059266
12166972 35 18040720285343978380
12596602 18 17561083613740870409
12760667 363 18411421726656224481
13402501 40 18187367670700907411
13668630 136 18408884035858836639
13782708 43 17967529077590087642
13862211 1 18335983074185798824
14849402 71 17202755034071948416
14931854 50 17967526861893878547
15064981 113 14924484404273788819
15183329 4 13551187767295880016
15510800 12 18114470062854359811
16992779 147 15840120386859334066
17627616 140 17822283536122885107
17780758 139 17346318172667995873
20028762 73 18343304747716768630
2026 5 18334010571105080171
21033650 10 16370999651614386589
21054139 6 18335140848089271650
21130935 74 18128254494429842770
21197605 99 18343866628439565582
21267235 1 18412829083716310686
21307412 95 17822571742162368643
21315759 148 16988004873853746148
23389318 12 18260274066768006780
23522609 53 18052576302179202264
23559900 14 18116150159592379433
2748736 6 8862941645597255686
3004659 81 18186515518866114297
3383291 50 18410572911542483907
351380 3 18202282524414394197
406291 66 18411698789884448450
439807 62 18334857242998614679
4461854 278 17846785138792803935
44880568 143 17240196629716320228
46194498 28 17532086275497694765
463206 1 18268992162698835267
465052 167 18272654558410647140
484989 97 18187656859133121618
5104073 3 17704356575783853609
54039377 194 18341617022573284670
5718773 13 18411136943705376067
59682541 52 14056991690627384920
6431902 208 18411136896460716291
7970288 3 18342175592045114151
999808 66 18409453591983870027

> <PUBCHEM_SHAPE_MULTIPOLES>
522.85
20.64
2.97
1.12
2.43
0.46
0.07
-17.34
0.63
-0.06
0.05
1.36
-0.04
0.18

> <PUBCHEM_SHAPE_SELFOVERLAP>
1144.681

> <PUBCHEM_SHAPE_VOLUME>
286.3

> <PUBCHEM_COORDINATE_TYPE>
2
5
10

$$$$
90354181
  -OEChem-05102415123D

 40 42  0     0  0  0  0  0  0999 V2000
    5.1750    3.0621    0.1976 F   0  0  0  0  0  0  0  0  0  0  0  0
    6.0584   -1.2541    1.9356 F   0  0  0  0  0  0  0  0  0  0  0  0
   -2.6633    1.9426   -0.1479 O   0  0  0  0  0  0  0  0  0  0  0  0
    1.2580   -2.4800   -0.1349 O   0  0  0  0  0  0  0  0  0  0  0  0
    1.5329   -0.5549   -1.3980 N   0  0  0  0  0  0  0  0  0  0  0  0
   -6.8051    0.0640    0.2071 N   0  0  0  0  0  0  0  0  0  0  0  0
   -6.5547    0.8285    1.2837 N   0  0  0  0  0  0  0  0  0  0  0  0
   -3.2564   -0.3679    0.1479 C   0  0  0  0  0  0  0  0  0  0  0  0
   -0.5993   -1.0636   -0.3412 C   0  0  0  0  0  0  0  0  0  0  0  0
   -2.3135    0.6247   -0.1200 C   0  0  0  0  0  0  0  0  0  0  0  0
    2.9121   -0.7884   -1.7617 C   0  0  0  0  0  0  0  0  0  0  0  0
   -0.9850    0.2767   -0.3646 C   0  0  0  0  0  0  0  0  0  0  0  0
   -4.6315   -0.0315    0.4010 C   0  0  0  0  0  0  0  0  0  0  0  0
   -2.8705   -1.7082    0.1716 C   0  0  0  0  0  0  0  0  0  0  0  0
   -1.5422   -2.0561   -0.0732 C   0  0  0  0  0  0  0  0  0  0  0  0
    3.8645   -0.1925   -0.7658 C   0  0  0  0  0  0  0  0  0  0  0  0
    0.7853   -1.4267   -0.5979 C   0  0  0  0  0  0  0  0  0  0  0  0
   -5.6868   -0.4745   -0.3585 C   0  0  0  0  0  0  0  0  0  0  0  0
    4.5321   -1.0166    0.1404 C   0  0  0  0  0  0  0  0  0  0  0  0
    4.0815    1.1853   -0.7463 C   0  0  0  0  0  0  0  0  0  0  0  0
   -5.2254    0.7663    1.3973 C   0  0  0  0  0  0  0  0  0  0  0  0
    4.9664    1.7390    0.1791 C   0  0  0  0  0  0  0  0  0  0  0  0
    5.4167   -0.4628    1.0659 C   0  0  0  0  0  0  0  0  0  0  0  0
    5.6340    0.9150    1.0852 C   0  0  0  0  0  0  0  0  0  0  0  0
   -3.0832    2.4735   -1.4025 C   0  0  0  0  0  0  0  0  0  0  0  0
    3.0761   -0.3426   -2.7495 H   0  0  0  0  0  0  0  0  0  0  0  0
    3.0787   -1.8668   -1.8664 H   0  0  0  0  0  0  0  0  0  0  0  0
   -0.2717    1.0781   -0.5372 H   0  0  0  0  0  0  0  0  0  0  0  0
   -3.5883   -2.4979    0.3816 H   0  0  0  0  0  0  0  0  0  0  0  0
   -1.2628   -3.1064   -0.0541 H   0  0  0  0  0  0  0  0  0  0  0  0
    1.0971    0.2676   -1.8011 H   0  0  0  0  0  0  0  0  0  0  0  0
    4.3719   -2.0913    0.1378 H   0  0  0  0  0  0  0  0  0  0  0  0
    3.5669    1.8374   -1.4469 H   0  0  0  0  0  0  0  0  0  0  0  0
   -5.7488   -1.1081   -1.2326 H   0  0  0  0  0  0  0  0  0  0  0  0
   -4.7486    1.3064    2.2032 H   0  0  0  0  0  0  0  0  0  0  0  0
   -7.7667   -0.0477   -0.0889 H   0  0  0  0  0  0  0  0  0  0  0  0
    6.3228    1.3460    1.8055 H   0  0  0  0  0  0  0  0  0  0  0  0
   -3.9445    1.9242   -1.7947 H   0  0  0  0  0  0  0  0  0  0  0  0
   -2.2602    2.4419   -2.1236 H   0  0  0  0  0  0  0  0  0  0  0  0
   -3.3748    3.5166   -1.2520 H   0  0  0  0  0  0  0  0  0  0  0  0
  1 22  1  0  0  0  0
  2 23  1  0  0  0  0
  3 10  1  0  0  0  0
  3 25  1  0  0  0  0
  4 17  2  0  0  0  0
  5 11  1  0  0  0  0
  5 17  1  0  0  0  0
  5 31  1  0  0  0  0
  6  7  1  0  0  0  0
  6 18  1  0  0  0  0
  6 36  1  0  0  0  0
  7 21  2  0  0  0  0
  8 10  2  0  0  0  0
  8 13  1  0  0  0  0
  8 14  1  0  0  0  0
  9 12  2  0  0  0  0
  9 15  1  0  0  0  0
  9 17  1  0  0  0  0
 10 12  1  0  0  0  0
 11 16  1  0  0  0  0
 11 26  1  0  0  0  0
 11 27  1  0  0  0  0
 12 28  1  0  0  0  0
 13 18  2  0  0  0  0
 13 21  1  0  0  0  0
 14 15  2  0  0  0  0
 14 29  1  0  0  0  0
 15 30  1  0  0  0  0
 16 19  2  0  0  0  0
 16 20  1  0  0  0  0
 18 34  1  0  0  0  0
 19 23  1  0  0  0  0
 19 32  1  0  0  0  0
 20 22  2  0  0  0  0
 20 33  1  0  0  0  0
 21 35  1  0  0  0  0
 22 24  1  0  0  0  0
 23 24  2  0  0  0  0
 24 37  1  0  0  0  0
 25 38  1  0  0  0  0
 25 39  1  0  0  0  0
 25 40  1  0  0  0  0
M  END
> <PUBCHEM_COMPOUND_CID>
90354181

> <PUBCHEM_CONFORMER_RMSD>
0.8

> <PUBCHEM_CONFORMER_DIVERSEORDER>
1
18
23
29
25
8
12
26
4
34
14
33
7
15
28
9
11
6
22
21
3
27
32
10
31
19
30
13
16
2
5
24
20
17

> <PUBCHEM_MMFF94_PARTIAL_CHARGES>
35
1 -0.19
10 0.08
11 0.44
12 -0.15
13 -0.05
14 -0.15
15 -0.15
16 -0.14
17 0.54
18 -0.3
19 -0.15
2 -0.19
20 -0.15
21 0.14
22 0.19
23 0.19
24 -0.15
25 0.28
28 0.15
29 0.15
3 -0.36
30 0.15
31 0.37
32 0.15
33 0.15
34 0.15
35 0.15
36 0.27
37 0.15
4 -0.57
5 -0.73
6 0.3
7 -0.71
8 0.05
9 0.09

> <PUBCHEM_EFFECTIVE_ROTOR_COUNT>
6

> <PUBCHEM_PHARMACOPHORE_FEATURES>
8
1 3 acceptor
1 4 acceptor
1 5 donor
1 6 donor
1 7 acceptor
5 6 7 13 18 21 rings
6 16 19 20 22 23 24 rings
6 8 9 10 12 14 15 rings

> <PUBCHEM_HEAVY_ATOM_COUNT>
25

> <PUBCHEM_ATOM_DEF_STEREO_COUNT>
0

> <PUBCHEM_ATOM_UDEF_STEREO_COUNT>
0

> <PUBCHEM_BOND_DEF_STEREO_COUNT>
0

> <PUBCHEM_BOND_UDEF_STEREO_COUNT>
0

> <PUBCHEM_ISOTOPIC_ATOM_COUNT>
0

> <PUBCHEM_COMPONENT_COUNT>
1

> <PUBCHEM_CACTVS_TAUTO_COUNT>
7

> <PUBCHEM_CONFORMER_ID>
0562B20500000001

> <PUBCHEM_MMFF94_ENERGY>
66.7794

> <PUBCHEM_FEATURE_SELFOVERLAP>
40.597

> <PUBCHEM_SHAPE_FINGERPRINT>
10 15 18261397775144191281
12403259 415 18410296865551348988
12596602 18 16732987573827286576
12760667 363 10737276944171327204
12925494 130 18048871897170397485
13402501 40 18342739636761742568
13533116 47 17894629228108449074
13685833 64 12829487065059799926
13914758 101 15357690856716022853
15348495 7 17240773942192787633
17980427 23 18339079414223879351
18222031 100 12901549031427325638
21150785 3 14261342545267789033
21315764 268 18334570244261691828
21792934 111 18041564629619212565
21859007 373 17459456754886949359
23016692 55 11674877780023955330
23559900 14 18129960983183065918
3472631 163 18202005468753361478
34797466 226 15985114036805959981
3680242 22 18335145292937356880
4340502 62 17676496033873768019
465052 167 13623529061124644490
5104073 3 18261679275912201442
960060 61 9439401333360511362

> <PUBCHEM_SHAPE_MULTIPOLES>
473.26
17.21
2.33
1.32
0.91
0.78
-0.05
5.43
-7.06
-1.22
0.27
-0.84
0.08
-0.03

> <PUBCHEM_SHAPE_SELFOVERLAP>
1034.514

> <PUBCHEM_SHAPE_VOLUME>
257.8

> <PUBCHEM_COORDINATE_TYPE>
2
5
10

$$$$
118662922
  -OEChem-05102415123D

 46 48  0     1  0  0  0  0  0999 V2000
   -3.2711   -1.9443   -0.2881 O   0  0  0  0  0  0  0  0  0  0  0  0
    1.1965    1.9160   -0.0161 O   0  0  0  0  0  0  0  0  0  0  0  0
    1.3487   -0.2428    0.8185 N   0  0  0  0  0  0  0  0  0  0  0  0
   -7.1274    0.4249    0.2824 N   0  0  0  0  0  0  0  0  0  0  0  0
   -7.1073   -0.1300   -0.9415 N   0  0  0  0  0  0  0  0  0  0  0  0
    3.5447   -0.7417   -0.2056 C   0  0  1  0  0  0  0  0  0  0  0  0
    2.7731   -0.2449    1.0273 C   0  0  0  0  0  0  0  0  0  0  0  0
    4.9945   -0.2847   -0.2087 C   0  0  0  0  0  0  0  0  0  0  0  0
    3.4487   -2.2678   -0.3069 C   0  0  0  0  0  0  0  0  0  0  0  0
    5.6879   -0.1567    0.9949 C   0  0  0  0  0  0  0  0  0  0  0  0
    5.6313    0.0067   -1.4150 C   0  0  0  0  0  0  0  0  0  0  0  0
    0.6690    0.8548    0.3063 C   0  0  0  0  0  0  0  0  0  0  0  0
   -0.8034    0.7072    0.1758 C   0  0  0  0  0  0  0  0  0  0  0  0
   -3.5691    0.4305   -0.0656 C   0  0  0  0  0  0  0  0  0  0  0  0
   -2.7481   -0.6961   -0.1182 C   0  0  0  0  0  0  0  0  0  0  0  0
   -1.3654   -0.5577    0.0024 C   0  0  0  0  0  0  0  0  0  0  0  0
   -1.6243    1.8339    0.2284 C   0  0  0  0  0  0  0  0  0  0  0  0
    7.0184    0.2626    0.9920 C   0  0  0  0  0  0  0  0  0  0  0  0
    6.9617    0.4262   -1.4178 C   0  0  0  0  0  0  0  0  0  0  0  0
   -3.0071    1.6955    0.1074 C   0  0  0  0  0  0  0  0  0  0  0  0
   -4.9971    0.3103   -0.1861 C   0  0  0  0  0  0  0  0  0  0  0  0
    7.6552    0.5538   -0.2143 C   0  0  0  0  0  0  0  0  0  0  0  0
   -5.8893    0.7079    0.7796 C   0  0  0  0  0  0  0  0  0  0  0  0
   -5.8032   -0.1976   -1.2224 C   0  0  0  0  0  0  0  0  0  0  0  0
   -3.6170   -2.6661    0.8916 C   0  0  0  0  0  0  0  0  0  0  0  0
    3.0646   -0.3146   -1.0973 H   0  0  0  0  0  0  0  0  0  0  0  0
    2.9657   -0.8727    1.9050 H   0  0  0  0  0  0  0  0  0  0  0  0
    3.0678    0.7803    1.2828 H   0  0  0  0  0  0  0  0  0  0  0  0
    3.9574   -2.6329   -1.2062 H   0  0  0  0  0  0  0  0  0  0  0  0
    2.4051   -2.5951   -0.3607 H   0  0  0  0  0  0  0  0  0  0  0  0
    3.9144   -2.7573    0.5559 H   0  0  0  0  0  0  0  0  0  0  0  0
    0.8447   -1.0694    1.1204 H   0  0  0  0  0  0  0  0  0  0  0  0
    5.2285   -0.3929    1.9497 H   0  0  0  0  0  0  0  0  0  0  0  0
    5.1031   -0.0908   -2.3597 H   0  0  0  0  0  0  0  0  0  0  0  0
   -0.7538   -1.4523   -0.0756 H   0  0  0  0  0  0  0  0  0  0  0  0
   -1.2058    2.8273    0.3667 H   0  0  0  0  0  0  0  0  0  0  0  0
   -3.6280    2.5876    0.1480 H   0  0  0  0  0  0  0  0  0  0  0  0
    7.5601    0.3582    1.9285 H   0  0  0  0  0  0  0  0  0  0  0  0
    7.4579    0.6525   -2.3571 H   0  0  0  0  0  0  0  0  0  0  0  0
    8.6914    0.8791   -0.2166 H   0  0  0  0  0  0  0  0  0  0  0  0
   -5.7648    1.1552    1.7562 H   0  0  0  0  0  0  0  0  0  0  0  0
   -5.4988   -0.6145   -2.1722 H   0  0  0  0  0  0  0  0  0  0  0  0
   -8.0251    0.5830    0.7228 H   0  0  0  0  0  0  0  0  0  0  0  0
   -4.0644   -3.6176    0.5914 H   0  0  0  0  0  0  0  0  0  0  0  0
   -4.3451   -2.1131    1.4929 H   0  0  0  0  0  0  0  0  0  0  0  0
   -2.7220   -2.8738    1.4867 H   0  0  0  0  0  0  0  0  0  0  0  0
  1 15  1  0  0  0  0
  1 25  1  0  0  0  0
  2 12  2  0  0  0  0
  3  7  1  0  0  0  0
  3 12  1  0  0  0  0
  3 32  1  0  0  0  0
  4  5  1  0  0  0  0
  4 23  1  0  0  0  0
  4 43  1  0  0  0  0
  5 24  2  0  0  0  0
  6  7  1  0  0  0  0
  6  8  1  0  0  0  0
  6  9  1  0  0  0  0
  6 26  1  0  0  0  0
  7 27  1  0  0  0  0
  7 28  1  0  0  0  0
  8 10  2  0  0  0  0
  8 11  1  0  0  0  0
  9 29  1  0  0  0  0
  9 30  1  0  0  0  0
  9 31  1  0  0  0  0
 10 18  1  0  0  0  0
 10 33  1  0  0  0  0
 11 19  2  0  0  0  0
 11 34  1  0  0  0  0
 12 13  1  0  0  0  0
 13 16  2  0  0  0  0
 13 17  1  0  0  0  0
 14 15  2  0  0  0  0
 14 20  1  0  0  0  0
 14 21  1  0  0  0  0
 15 16  1  0  0  0  0
 16 35  1  0  0  0  0
 17 20  2  0  0  0  0
 17 36  1  0  0  0  0
 18 22  2  0  0  0  0
 18 38  1  0  0  0  0
 19 22  1  0  0  0  0
 19 39  1  0  0  0  0
 20 37  1  0  0  0  0
 21 23  2  0  0  0  0
 21 24  1  0  0  0  0
 22 40  1  0  0  0  0
 23 41  1  0  0  0  0
 24 42  1  0  0  0  0
 25 44  1  0  0  0  0
 25 45  1  0  0  0  0
 25 46  1  0  0  0  0
M  END
> <PUBCHEM_COMPOUND_CID>
118662922

> <PUBCHEM_CONFORMER_RMSD>
0.8

> <PUBCHEM_CONFORMER_DIVERSEORDER>
1
15
42
56
57
46
50
5
78
60
92
67
85
68
61
30
29
87
65
69
72
35
74
58
19
45
4
49
59
86
8
43
41
80
14
53
84
76
83
39
16
31
89
73
20
64
51
71
79
23
62
44
13
66
90
55
32
27
28
77
22
91
63
36
88
21
54
26
11
52
70
38
81
75
12
7
34
40
17
82
25
3
47
37
24
18
10
33
9
6
48
2

> <PUBCHEM_MMFF94_PARTIAL_CHARGES>
36
1 -0.36
10 -0.15
11 -0.15
12 0.54
13 0.09
14 0.05
15 0.08
16 -0.15
17 -0.15
18 -0.15
19 -0.15
2 -0.57
20 -0.15
21 -0.05
22 -0.15
23 -0.3
24 0.14
25 0.28
3 -0.73
32 0.37
33 0.15
34 0.15
35 0.15
36 0.15
37 0.15
38 0.15
39 0.15
4 0.3
40 0.15
41 0.15
42 0.15
43 0.27
5 -0.71
6 0.14
7 0.3
8 -0.14

> <PUBCHEM_EFFECTIVE_ROTOR_COUNT>
7

> <PUBCHEM_PHARMACOPHORE_FEATURES>
9
1 1 acceptor
1 2 acceptor
1 3 donor
1 4 donor
1 5 acceptor
1 9 hydrophobe
5 4 5 21 23 24 rings
6 13 14 15 16 17 20 rings
6 8 10 11 18 19 22 rings

> <PUBCHEM_HEAVY_ATOM_COUNT>
25

> <PUBCHEM_ATOM_DEF_STEREO_COUNT>
1

> <PUBCHEM_ATOM_UDEF_STEREO_COUNT>
0

> <PUBCHEM_BOND_DEF_STEREO_COUNT>
0

> <PUBCHEM_BOND_UDEF_STEREO_COUNT>
0

> <PUBCHEM_ISOTOPIC_ATOM_COUNT>
0

> <PUBCHEM_COMPONENT_COUNT>
1

> <PUBCHEM_CACTVS_TAUTO_COUNT>
27

> <PUBCHEM_CONFORMER_ID>
0712A70A00000001

> <PUBCHEM_MMFF94_ENERGY>
72.75

> <PUBCHEM_FEATURE_SELFOVERLAP>
45.671

> <PUBCHEM_SHAPE_FINGERPRINT>
10299344 5 17775567524514122476
10968037 39 18410572886130407861
11315181 36 17632579370638598777
11524674 6 14692565533577048413
11719270 70 18409443662357455706
12166972 35 12103557597948847650
12236239 1 17603585205573803552
12516196 113 17704351065630514408
12596602 18 14476668741328861407
12788726 201 18335414613283415873
12838862 33 18339061744591214063
13668630 136 16200152101249772942
13685833 64 16056881329925674644
13914758 101 13479126870169664676
14123256 10 18409167706175719860
14251764 18 18272930514238038619
14617045 38 18272933803961753134
15183329 4 18408324388693146069
15439362 3 16879928575923301236
15849732 13 16988560216713548981
17844677 252 16271932601847811728
18335252 98 18114189639949431619
18608769 82 18114187475433692115
19319366 153 17676480614508938515
20157964 124 16587744223124362200
20281389 69 10015862081295517354
21150785 3 17822009818077701253
21267235 1 18341895230039575627
21315764 268 9367337111814324410
21344244 181 16558759997141996566
2297311 6 17846500313825458441
23035841 295 18412261722958044520
23516275 137 16486434125607622287
23522609 53 18057350347206651065
23559900 14 18339918332990580665
24771750 20 17826530030185678740
249057 3 18334295400714245773
3004659 81 18335417993253839528
335352 9 18411132546756254053
3383291 50 18270962449087534131
34797466 226 17775287175515649748
3545911 37 18411979156796045920
4073 2 18334858372337812642
4325135 7 18187365420343421604
437815 12 17418374709690288545
5283156 175 18186799150290629266
5486654 2 18412266142922743934
59755656 215 18342738507427676902
59755656 520 15647053793646491379

> <PUBCHEM_SHAPE_MULTIPOLES>
487.81
21.91
1.79
1.09
10.63
0.82
0.14
-1.17
3.43
-1.3
-0.21
0.86
0.06
-0.1

> <PUBCHEM_SHAPE_SELFOVERLAP>
1051.839

> <PUBCHEM_SHAPE_VOLUME>
268.8

> <PUBCHEM_COORDINATE_TYPE>
2
5
10

$$$$
134142625
  -OEChem-05102415133D

 42 44  0     1  0  0  0  0  0999 V2000
   -5.2003    0.8961    1.7472 F   0  0  0  0  0  0  0  0  0  0  0  0
    4.7405    1.5453   -1.0651 F   0  0  0  0  0  0  0  0  0  0  0  0
    3.6536    3.1081   -0.0270 F   0  0  0  0  0  0  0  0  0  0  0  0
   -1.1189    2.4763    0.5838 O   0  0  0  0  0  0  0  0  0  0  0  0
   -2.0284    0.5550   -0.3426 N   0  0  0  0  0  0  0  0  0  0  0  0
    5.8419   -2.3924   -0.4368 N   0  0  0  0  0  0  0  0  0  0  0  0
    6.2808   -1.7983    0.6859 N   0  0  0  0  0  0  0  0  0  0  0  0
   -3.3878    1.0380   -0.4296 C   0  0  2  0  0  0  0  0  0  0  0  0
   -4.3841   -0.0876   -0.2530 C   0  0  0  0  0  0  0  0  0  0  0  0
    0.3477    0.6958    0.1631 C   0  0  0  0  0  0  0  0  0  0  0  0
    2.8715   -0.4934    0.1597 C   0  0  0  0  0  0  0  0  0  0  0  0
    2.7548    0.8954    0.0985 C   0  0  0  0  0  0  0  0  0  0  0  0
   -3.6028    1.8092   -1.7303 C   0  0  0  0  0  0  0  0  0  0  0  0
   -0.9682    1.3150    0.1649 C   0  0  0  0  0  0  0  0  0  0  0  0
    1.4928    1.4899    0.1002 C   0  0  0  0  0  0  0  0  0  0  0  0
    0.4645   -0.6930    0.2244 C   0  0  0  0  0  0  0  0  0  0  0  0
    1.7263   -1.2874    0.2224 C   0  0  0  0  0  0  0  0  0  0  0  0
    4.1608   -1.1312    0.1585 C   0  0  0  0  0  0  0  0  0  0  0  0
   -5.2471   -0.0921    0.8430 C   0  0  0  0  0  0  0  0  0  0  0  0
   -4.4396   -1.1208   -1.1885 C   0  0  0  0  0  0  0  0  0  0  0  0
    3.9592    1.7790    0.0293 C   0  0  0  0  0  0  0  0  0  0  0  0
   -6.1654   -1.1296    1.0034 C   0  0  0  0  0  0  0  0  0  0  0  0
   -5.3582   -2.1583   -1.0283 C   0  0  0  0  0  0  0  0  0  0  0  0
    4.5778   -2.0268   -0.7959 C   0  0  0  0  0  0  0  0  0  0  0  0
    5.2495   -1.0292    1.0450 C   0  0  0  0  0  0  0  0  0  0  0  0
   -6.2210   -2.1629    0.0678 C   0  0  0  0  0  0  0  0  0  0  0  0
   -3.5223    1.7598    0.3856 H   0  0  0  0  0  0  0  0  0  0  0  0
   -1.8349   -0.3489   -0.7612 H   0  0  0  0  0  0  0  0  0  0  0  0
   -2.9316    2.6738   -1.7846 H   0  0  0  0  0  0  0  0  0  0  0  0
   -4.6321    2.1769   -1.8051 H   0  0  0  0  0  0  0  0  0  0  0  0
   -3.4006    1.1912   -2.6122 H   0  0  0  0  0  0  0  0  0  0  0  0
    1.3981    2.5716    0.0474 H   0  0  0  0  0  0  0  0  0  0  0  0
   -0.3991   -1.3464    0.3070 H   0  0  0  0  0  0  0  0  0  0  0  0
    1.7945   -2.3714    0.2820 H   0  0  0  0  0  0  0  0  0  0  0  0
   -3.7737   -1.1379   -2.0470 H   0  0  0  0  0  0  0  0  0  0  0  0
    4.5781    1.6570    0.9221 H   0  0  0  0  0  0  0  0  0  0  0  0
   -6.8370   -1.1330    1.8568 H   0  0  0  0  0  0  0  0  0  0  0  0
   -5.4011   -2.9632   -1.7562 H   0  0  0  0  0  0  0  0  0  0  0  0
    4.1062   -2.4310   -1.6810 H   0  0  0  0  0  0  0  0  0  0  0  0
    5.3387   -0.4347    1.9434 H   0  0  0  0  0  0  0  0  0  0  0  0
   -6.9360   -2.9708    0.1928 H   0  0  0  0  0  0  0  0  0  0  0  0
    6.4599   -3.0395   -0.9103 H   0  0  0  0  0  0  0  0  0  0  0  0
  1 19  1  0  0  0  0
  2 21  1  0  0  0  0
  3 21  1  0  0  0  0
  4 14  2  0  0  0  0
  5  8  1  0  0  0  0
  5 14  1  0  0  0  0
  5 28  1  0  0  0  0
  6  7  1  0  0  0  0
  6 24  1  0  0  0  0
  6 42  1  0  0  0  0
  7 25  2  0  0  0  0
  8  9  1  0  0  0  0
  8 13  1  0  0  0  0
  8 27  1  0  0  0  0
  9 19  1  0  0  0  0
  9 20  2  0  0  0  0
 10 14  1  0  0  0  0
 10 15  2  0  0  0  0
 10 16  1  0  0  0  0
 11 12  2  0  0  0  0
 11 17  1  0  0  0  0
 11 18  1  0  0  0  0
 12 15  1  0  0  0  0
 12 21  1  0  0  0  0
 13 29  1  0  0  0  0
 13 30  1  0  0  0  0
 13 31  1  0  0  0  0
 15 32  1  0  0  0  0
 16 17  2  0  0  0  0
 16 33  1  0  0  0  0
 17 34  1  0  0  0  0
 18 24  2  0  0  0  0
 18 25  1  0  0  0  0
 19 22  2  0  0  0  0
 20 23  1  0  0  0  0
 20 35  1  0  0  0  0
 21 36  1  0  0  0  0
 22 26  1  0  0  0  0
 22 37  1  0  0  0  0
 23 26  2  0  0  0  0
 23 38  1  0  0  0  0
 24 39  1  0  0  0  0
 25 40  1  0  0  0  0
 26 41  1  0  0  0  0
M  END
> <PUBCHEM_COMPOUND_CID>
134142625

> <PUBCHEM_CONFORMER_RMSD>
0.8

> <PUBCHEM_CONFORMER_DIVERSEORDER>
2
75
43
63
66
28
13
12
64
61
18
76
31
72
55
17
54
24
39
4
22
56
46
9
68
70
48
29
73
74
30
19
7
33
65
34
35
50
60
27
32
69
37
38
71
20
5
15
47
67
11
3
52
58
8
53
40
44
59
26
77
45
23
49
6
51
42
10
25
62
41
1
57
21
16
36
14

> <PUBCHEM_MMFF94_PARTIAL_CHARGES>
36
1 -0.19
10 0.09
11 0.05
12 -0.14
14 0.54
15 -0.15
16 -0.15
17 -0.15
18 -0.05
19 0.19
2 -0.34
20 -0.15
21 0.82
22 -0.15
23 -0.15
24 -0.3
25 0.14
26 -0.15
28 0.37
3 -0.34
32 0.15
33 0.15
34 0.15
35 0.15
37 0.15
38 0.15
39 0.15
4 -0.57
40 0.15
41 0.15
42 0.27
5 -0.73
6 0.3
7 -0.71
8 0.44
9 -0.14

> <PUBCHEM_EFFECTIVE_ROTOR_COUNT>
6

> <PUBCHEM_PHARMACOPHORE_FEATURES>
7
1 4 acceptor
1 5 donor
1 6 donor
1 7 acceptor
5 6 7 18 24 25 rings
6 10 11 12 15 16 17 rings
6 9 19 20 22 23 26 rings

> <PUBCHEM_HEAVY_ATOM_COUNT>
26

> <PUBCHEM_ATOM_DEF_STEREO_COUNT>
1

> <PUBCHEM_ATOM_UDEF_STEREO_COUNT>
0

> <PUBCHEM_BOND_DEF_STEREO_COUNT>
0

> <PUBCHEM_BOND_UDEF_STEREO_COUNT>
0

> <PUBCHEM_ISOTOPIC_ATOM_COUNT>
0

> <PUBCHEM_COMPONENT_COUNT>
1

> <PUBCHEM_CACTVS_TAUTO_COUNT>
11

> <PUBCHEM_CONFORMER_ID>
07FEDAA100000002

> <PUBCHEM_MMFF94_ENERGY>
59.4783

> <PUBCHEM_FEATURE_SELFOVERLAP>
35.522

> <PUBCHEM_SHAPE_FINGERPRINT>
10 15 13470682672481902631
11089746 13 11819283252165202646
12107183 9 18128549167529811521
12166972 35 17967537865462694220
12422481 6 16988843830678750254
12616971 3 18272366477515408391
13073987 5 18272933860065412065
13533116 47 18410576210514482720
13782708 43 17895188879273714178
13955234 65 18342170124857877272
14347332 77 18408602535122975877
14849402 71 18059006315409032024
15064981 113 13696402505728499843
15183329 4 18413389855942530239
15196674 1 18410853274411898821
15250474 111 17988634250915647447
15799311 1 18270135594208779079
15880784 105 18411141355311970763
16110190 28 18273497892698809887
17349148 13 18040438763053665569
17492 89 18341048523869899454
17780758 139 17918273126410236707
17844677 252 18334013874076809693
18222031 100 16515683355340270519
18927931 339 17749393638005428059
19377110 9 18060699524212370240
20028762 73 18342455937219254654
21150785 3 16805613568464476422
21267235 1 18410578370424193930
21315763 191 18059858359373165235
21709351 56 18041555845403374717
22393880 68 17968646130085963677
22950370 63 18343586269821704505
23522609 53 18194997138425324913
23559900 14 18267569248043486352
3004659 81 18260261945288875394
314194 84 18271523216901331991
34797466 226 16588027969437509933
439807 62 18334011696897519143
465052 167 18342741793494468094
5104073 3 18131068238240782897
54039377 194 18341898472213039542
7495541 125 17988637527690285600

> <PUBCHEM_SHAPE_MULTIPOLES>
492.43
17.32
2.81
1.13
4.44
0.47
0.06
-10.65
-1.11
-1.64
0.41
1.2
0.05
-0.21

> <PUBCHEM_SHAPE_SELFOVERLAP>
1076.345

> <PUBCHEM_SHAPE_VOLUME>
267.8

> <PUBCHEM_COORDINATE_TYPE>
2
5
10

$$$$
118662954
  -OEChem-05102415133D

 40 42  0     0  0  0  0  0  0999 V2000
    3.4229    2.0731   -1.7793 Cl  0  0  0  0  0  0  0  0  0  0  0  0
    6.7981    1.3313    2.3467 Cl  0  0  0  0  0  0  0  0  0  0  0  0
   -2.5945    1.9223   -0.2307 O   0  0  0  0  0  0  0  0  0  0  0  0
    1.2711   -2.5388    0.0713 O   0  0  0  0  0  0  0  0  0  0  0  0
    1.5723   -0.7008   -1.3100 N   0  0  0  0  0  0  0  0  0  0  0  0
   -6.7602    0.1212    0.2314 N   0  0  0  0  0  0  0  0  0  0  0  0
   -6.5022    0.9490    1.2583 N   0  0  0  0  0  0  0  0  0  0  0  0
   -3.2170   -0.3574    0.2087 C   0  0  0  0  0  0  0  0  0  0  0  0
   -0.5679   -1.1154   -0.2287 C   0  0  0  0  0  0  0  0  0  0  0  0
   -2.2613    0.6045   -0.1189 C   0  0  0  0  0  0  0  0  0  0  0  0
    2.9492   -0.9739   -1.6547 C   0  0  0  0  0  0  0  0  0  0  0  0
   -0.9368    0.2254   -0.3376 C   0  0  0  0  0  0  0  0  0  0  0  0
   -4.5883    0.0113    0.4366 C   0  0  0  0  0  0  0  0  0  0  0  0
   -2.8480   -1.6982    0.3179 C   0  0  0  0  0  0  0  0  0  0  0  0
   -1.5236   -2.0773    0.0990 C   0  0  0  0  0  0  0  0  0  0  0  0
    3.9059   -0.3686   -0.6687 C   0  0  0  0  0  0  0  0  0  0  0  0
    0.8125   -1.5111   -0.4584 C   0  0  0  0  0  0  0  0  0  0  0  0
    4.1761    1.0000   -0.6563 C   0  0  0  0  0  0  0  0  0  0  0  0
    4.5297   -1.2109    0.2517 C   0  0  0  0  0  0  0  0  0  0  0  0
   -5.6477   -0.4657   -0.2963 C   0  0  0  0  0  0  0  0  0  0  0  0
   -5.1739    0.8777    1.3789 C   0  0  0  0  0  0  0  0  0  0  0  0
    5.0704    1.5258    0.2762 C   0  0  0  0  0  0  0  0  0  0  0  0
    5.4241   -0.6851    1.1840 C   0  0  0  0  0  0  0  0  0  0  0  0
    5.6945    0.6835    1.1963 C   0  0  0  0  0  0  0  0  0  0  0  0
   -3.0056    2.3781   -1.5175 C   0  0  0  0  0  0  0  0  0  0  0  0
    3.1321   -0.5947   -2.6661 H   0  0  0  0  0  0  0  0  0  0  0  0
    3.0855   -2.0607   -1.7107 H   0  0  0  0  0  0  0  0  0  0  0  0
   -0.2132    1.0054   -0.5587 H   0  0  0  0  0  0  0  0  0  0  0  0
   -3.5760   -2.4642    0.5755 H   0  0  0  0  0  0  0  0  0  0  0  0
   -1.2575   -3.1276    0.1850 H   0  0  0  0  0  0  0  0  0  0  0  0
    1.1479    0.0998   -1.7656 H   0  0  0  0  0  0  0  0  0  0  0  0
    4.3297   -2.2792    0.2576 H   0  0  0  0  0  0  0  0  0  0  0  0
   -5.7160   -1.1524   -1.1287 H   0  0  0  0  0  0  0  0  0  0  0  0
   -4.6918    1.4616    2.1505 H   0  0  0  0  0  0  0  0  0  0  0  0
    5.2823    2.5929    0.2873 H   0  0  0  0  0  0  0  0  0  0  0  0
    5.9027   -1.3533    1.8953 H   0  0  0  0  0  0  0  0  0  0  0  0
   -7.7226    0.0029   -0.0595 H   0  0  0  0  0  0  0  0  0  0  0  0
   -3.8727    1.8155   -1.8766 H   0  0  0  0  0  0  0  0  0  0  0  0
   -2.1816    2.2913   -2.2328 H   0  0  0  0  0  0  0  0  0  0  0  0
   -3.2846    3.4320   -1.4337 H   0  0  0  0  0  0  0  0  0  0  0  0
  1 18  1  0  0  0  0
  2 24  1  0  0  0  0
  3 10  1  0  0  0  0
  3 25  1  0  0  0  0
  4 17  2  0  0  0  0
  5 11  1  0  0  0  0
  5 17  1  0  0  0  0
  5 31  1  0  0  0  0
  6  7  1  0  0  0  0
  6 20  1  0  0  0  0
  6 37  1  0  0  0  0
  7 21  2  0  0  0  0
  8 10  2  0  0  0  0
  8 13  1  0  0  0  0
  8 14  1  0  0  0  0
  9 12  2  0  0  0  0
  9 15  1  0  0  0  0
  9 17  1  0  0  0  0
 10 12  1  0  0  0  0
 11 16  1  0  0  0  0
 11 26  1  0  0  0  0
 11 27  1  0  0  0  0
 12 28  1  0  0  0  0
 13 20  2  0  0  0  0
 13 21  1  0  0  0  0
 14 15  2  0  0  0  0
 14 29  1  0  0  0  0
 15 30  1  0  0  0  0
 16 18  2  0  0  0  0
 16 19  1  0  0  0  0
 18 22  1  0  0  0  0
 19 23  2  0  0  0  0
 19 32  1  0  0  0  0
 20 33  1  0  0  0  0
 21 34  1  0  0  0  0
 22 24  2  0  0  0  0
 22 35  1  0  0  0  0
 23 24  1  0  0  0  0
 23 36  1  0  0  0  0
 25 38  1  0  0  0  0
 25 39  1  0  0  0  0
 25 40  1  0  0  0  0
M  END
> <PUBCHEM_COMPOUND_CID>
118662954

> <PUBCHEM_CONFORMER_RMSD>
0.8

> <PUBCHEM_CONFORMER_DIVERSEORDER>
1
59
62
40
47
45
28
15
24
44
43
32
18
50
5
49
31
55
8
26
33
56
57
54
37
48
36
41
30
60
16
58
34
21
46
27
53
39
61
12
9
51
52
19
17
38
35
23
20
6
13
4
42
11
14
29
2
25
3
10
22
7

> <PUBCHEM_MMFF94_PARTIAL_CHARGES>
35
1 -0.18
10 0.08
11 0.44
12 -0.15
13 -0.05
14 -0.15
15 -0.15
16 -0.14
17 0.54
18 0.18
19 -0.15
2 -0.18
20 -0.3
21 0.14
22 -0.15
23 -0.15
24 0.18
25 0.28
28 0.15
29 0.15
3 -0.36
30 0.15
31 0.37
32 0.15
33 0.15
34 0.15
35 0.15
36 0.15
37 0.27
4 -0.57
5 -0.73
6 0.3
7 -0.71
8 0.05
9 0.09

> <PUBCHEM_EFFECTIVE_ROTOR_COUNT>
6

> <PUBCHEM_PHARMACOPHORE_FEATURES>
8
1 3 acceptor
1 4 acceptor
1 5 donor
1 6 donor
1 7 acceptor
5 6 7 13 20 21 rings
6 16 18 19 22 23 24 rings
6 8 9 10 12 14 15 rings

> <PUBCHEM_HEAVY_ATOM_COUNT>
25

> <PUBCHEM_ATOM_DEF_STEREO_COUNT>
0

> <PUBCHEM_ATOM_UDEF_STEREO_COUNT>
0

> <PUBCHEM_BOND_DEF_STEREO_COUNT>
0

> <PUBCHEM_BOND_UDEF_STEREO_COUNT>
0

> <PUBCHEM_ISOTOPIC_ATOM_COUNT>
0

> <PUBCHEM_COMPONENT_COUNT>
1

> <PUBCHEM_CACTVS_TAUTO_COUNT>
9

> <PUBCHEM_CONFORMER_ID>
0712A72A00000001

> <PUBCHEM_MMFF94_ENERGY>
69.9046

> <PUBCHEM_FEATURE_SELFOVERLAP>
40.597

> <PUBCHEM_SHAPE_FINGERPRINT>
10 15 18114180860972721336
12166972 35 18340211800069596472
12403259 415 18339362963954591060
12596602 18 16298672779826456456
12616971 3 17676768768254154638
12633257 1 17968653930326730998
12760667 363 11386361513347145910
12925494 130 17901943050375631573
13150687 139 10375580556760836234
13533116 47 17458346312557127818
13685833 64 13623524663162262858
13782708 43 14563109077857178145
13914758 101 15068616055602511101
14341114 176 18186520999476135188
15238133 3 18341051943328810544
15348495 7 17095815424472019089
15475509 35 15140948570608313032
21150785 3 15123504814095650545
21315764 268 18334572434647442580
21792934 111 18114465549017661357
21859007 373 17241594049255395749
22149856 69 18127719122366594259
2215653 11 8790880766146586529
23016692 55 8070032172664108506
23559900 14 18269012954577896486
25269216 80 14835542787068577181
2838139 119 16415186911242843448
2916195 48 18131351890876454515
3472631 163 16845005823224068960
34797466 226 15913337909112590469
3680242 22 18334583420957293480
4340502 62 17385732382979094243
465052 167 13840266983662191362
5104073 3 18117557327578517922
543368 44 17346598582445064881
8509985 295 18333733541893572740
960060 61 10159696889584520518

> <PUBCHEM_SHAPE_MULTIPOLES>
491.55
17.48
2.26
1.59
1.86
0.1
-0.21
6.27
-9.25
-0.3
0.55
-2.11
0.74
0.4

> <PUBCHEM_SHAPE_SELFOVERLAP>
1051.603

> <PUBCHEM_SHAPE_VOLUME>
274.4

> <PUBCHEM_COORDINATE_TYPE>
2
5
10

$$$$
118663024
  -OEChem-05102415133D

 41 43  0     0  0  0  0  0  0999 V2000
   -2.4554    1.8259    0.6129 O   0  0  0  0  0  0  0  0  0  0  0  0
    1.0434   -2.8058   -0.4605 O   0  0  0  0  0  0  0  0  0  0  0  0
    1.5175   -1.2319    1.1758 N   0  0  0  0  0  0  0  0  0  0  0  0
   -6.7923    0.2646   -0.2876 N   0  0  0  0  0  0  0  0  0  0  0  0
   -6.4301    1.5237   -0.5866 N   0  0  0  0  0  0  0  0  0  0  0  0
    4.9357    3.7728   -0.1604 N   0  0  0  0  0  0  0  0  0  0  0  0
   -3.2686   -0.3157   -0.1154 C   0  0  0  0  0  0  0  0  0  0  0  0
   -0.6799   -1.3276    0.1255 C   0  0  0  0  0  0  0  0  0  0  0  0
   -2.2314    0.5153    0.3085 C   0  0  0  0  0  0  0  0  0  0  0  0
    2.8870   -1.6225    1.3955 C   0  0  0  0  0  0  0  0  0  0  0  0
   -0.9372    0.0092    0.4291 C   0  0  0  0  0  0  0  0  0  0  0  0
   -4.6099    0.1859   -0.2482 C   0  0  0  0  0  0  0  0  0  0  0  0
   -3.0114   -1.6527   -0.4187 C   0  0  0  0  0  0  0  0  0  0  0  0
   -1.7170   -2.1587   -0.2984 C   0  0  0  0  0  0  0  0  0  0  0  0
    3.8353   -0.8881    0.5091 C   0  0  0  0  0  0  0  0  0  0  0  0
    0.6987   -1.8666    0.2519 C   0  0  0  0  0  0  0  0  0  0  0  0
   -5.7395   -0.5763   -0.0757 C   0  0  0  0  0  0  0  0  0  0  0  0
    3.9088    0.5037    0.5650 C   0  0  0  0  0  0  0  0  0  0  0  0
   -5.0958    1.4696   -0.5610 C   0  0  0  0  0  0  0  0  0  0  0  0
    4.6504   -1.5946   -0.3755 C   0  0  0  0  0  0  0  0  0  0  0  0
    4.7972    1.1892   -0.2636 C   0  0  0  0  0  0  0  0  0  0  0  0
    5.5391   -0.9091   -1.2039 C   0  0  0  0  0  0  0  0  0  0  0  0
    5.6123    0.4827   -1.1482 C   0  0  0  0  0  0  0  0  0  0  0  0
   -1.3304    2.5922    1.0369 C   0  0  0  0  0  0  0  0  0  0  0  0
    4.8736    2.6148   -0.2067 C   0  0  0  0  0  0  0  0  0  0  0  0
    2.9707   -2.7068    1.2582 H   0  0  0  0  0  0  0  0  0  0  0  0
    3.1275   -1.4122    2.4440 H   0  0  0  0  0  0  0  0  0  0  0  0
   -0.1015    0.6362    0.7113 H   0  0  0  0  0  0  0  0  0  0  0  0
   -3.7906   -2.3270   -0.7651 H   0  0  0  0  0  0  0  0  0  0  0  0
   -1.5359   -3.2032   -0.5383 H   0  0  0  0  0  0  0  0  0  0  0  0
    1.1539   -0.4976    1.7736 H   0  0  0  0  0  0  0  0  0  0  0  0
   -5.9032   -1.6140    0.1804 H   0  0  0  0  0  0  0  0  0  0  0  0
    3.2756    1.0537    1.2585 H   0  0  0  0  0  0  0  0  0  0  0  0
    4.6043   -2.6789   -0.4312 H   0  0  0  0  0  0  0  0  0  0  0  0
   -4.5485    2.3737   -0.7866 H   0  0  0  0  0  0  0  0  0  0  0  0
    6.1736   -1.4592   -1.8926 H   0  0  0  0  0  0  0  0  0  0  0  0
   -7.7801    0.0473   -0.2427 H   0  0  0  0  0  0  0  0  0  0  0  0
    6.3099    1.0027   -1.8005 H   0  0  0  0  0  0  0  0  0  0  0  0
   -0.9075    2.2113    1.9730 H   0  0  0  0  0  0  0  0  0  0  0  0
   -0.5819    2.6875    0.2427 H   0  0  0  0  0  0  0  0  0  0  0  0
   -1.6942    3.6037    1.2467 H   0  0  0  0  0  0  0  0  0  0  0  0
  1  9  1  0  0  0  0
  1 24  1  0  0  0  0
  2 16  2  0  0  0  0
  3 10  1  0  0  0  0
  3 16  1  0  0  0  0
  3 31  1  0  0  0  0
  4  5  1  0  0  0  0
  4 17  1  0  0  0  0
  4 37  1  0  0  0  0
  5 19  2  0  0  0  0
  6 25  3  0  0  0  0
  7  9  2  0  0  0  0
  7 12  1  0  0  0  0
  7 13  1  0  0  0  0
  8 11  2  0  0  0  0
  8 14  1  0  0  0  0
  8 16  1  0  0  0  0
  9 11  1  0  0  0  0
 10 15  1  0  0  0  0
 10 26  1  0  0  0  0
 10 27  1  0  0  0  0
 11 28  1  0  0  0  0
 12 17  2  0  0  0  0
 12 19  1  0  0  0  0
 13 14  2  0  0  0  0
 13 29  1  0  0  0  0
 14 30  1  0  0  0  0
 15 18  2  0  0  0  0
 15 20  1  0  0  0  0
 17 32  1  0  0  0  0
 18 21  1  0  0  0  0
 18 33  1  0  0  0  0
 19 35  1  0  0  0  0
 20 22  2  0  0  0  0
 20 34  1  0  0  0  0
 21 23  2  0  0  0  0
 21 25  1  0  0  0  0
 22 23  1  0  0  0  0
 22 36  1  0  0  0  0
 23 38  1  0  0  0  0
 24 39  1  0  0  0  0
 24 40  1  0  0  0  0
 24 41  1  0  0  0  0
M  END
> <PUBCHEM_COMPOUND_CID>
118663024

> <PUBCHEM_CONFORMER_RMSD>
0.8

> <PUBCHEM_CONFORMER_DIVERSEORDER>
12
27
68
69
47
53
25
19
33
40
54
58
51
30
20
17
62
18
57
4
44
63
52
55
14
42
22
32
2
10
38
59
37
64
67
7
13
70
45
24
34
26
73
6
8
41
72
60
36
66
29
31
48
11
15
49
61
1
50
65
39
23
71
9
16
28
46
56
35
43
5
3
21

> <PUBCHEM_MMFF94_PARTIAL_CHARGES>
36
1 -0.36
10 0.44
11 -0.15
12 -0.05
13 -0.15
14 -0.15
15 -0.14
16 0.54
17 -0.3
18 -0.15
19 0.14
2 -0.57
20 -0.15
21 0.07
22 -0.15
23 -0.15
24 0.28
25 0.48
28 0.15
29 0.15
3 -0.73
30 0.15
31 0.37
32 0.15
33 0.15
34 0.15
35 0.15
36 0.15
37 0.27
38 0.15
4 0.3
5 -0.71
6 -0.56
7 0.05
8 0.09
9 0.08

> <PUBCHEM_EFFECTIVE_ROTOR_COUNT>
6

> <PUBCHEM_PHARMACOPHORE_FEATURES>
9
1 1 acceptor
1 2 acceptor
1 3 donor
1 4 donor
1 5 acceptor
1 6 acceptor
5 4 5 12 17 19 rings
6 15 18 20 21 22 23 rings
6 7 8 9 11 13 14 rings

> <PUBCHEM_HEAVY_ATOM_COUNT>
25

> <PUBCHEM_ATOM_DEF_STEREO_COUNT>
0

> <PUBCHEM_ATOM_UDEF_STEREO_COUNT>
0

> <PUBCHEM_BOND_DEF_STEREO_COUNT>
0

> <PUBCHEM_BOND_UDEF_STEREO_COUNT>
0

> <PUBCHEM_ISOTOPIC_ATOM_COUNT>
0

> <PUBCHEM_COMPONENT_COUNT>
1

> <PUBCHEM_CACTVS_TAUTO_COUNT>
9

> <PUBCHEM_CONFORMER_ID>
0712A7700000000C

> <PUBCHEM_MMFF94_ENERGY>
67.0675

> <PUBCHEM_FEATURE_SELFOVERLAP>
45.673

> <PUBCHEM_SHAPE_FINGERPRINT>
10498660 4 18411982490154858874
10670039 82 18270124500687749632
10906281 52 18200883868789095203
11796584 16 13326563064784219719
11991303 11 17774995826172029503
12236239 1 18186519878168411207
12390115 104 17559680530199610841
12616971 3 18188473723268761722
12788726 201 18060420171055070505
13617811 41 18339068389323470201
13782708 43 14692561139972852957
13899415 154 17917991690009078177
14528608 73 18408602556566092174
14790565 3 18340207393333034657
14840074 17 18186809062653402373
14931854 50 18341626927591146212
15001296 14 18334856160160902160
15064981 194 18193016982396737980
15183329 4 18131638859111113770
15575132 122 18261392192140673277
19053607 189 18050843622879244184
1979834 28 13407074747666747786
20567600 234 15647063672008201935
21049683 118 17458895046295179842
21130935 74 8646771110279154869
21424621 283 16588867838130293405
21682296 61 9655310253826669261
221357 26 18131354081642110792
23559900 14 18202558506022418960
23569914 2 16737715439515030805
245318 6 17678473058801722012
2838139 119 18334566936788383054
3004659 81 18412262827139309376
3472631 163 18411138065019089782
34797466 226 18272658947714223271
474 4 17748835133037241910
5104073 3 17676479592659721138
53794403 172 18042693986521581132
633830 44 18336538400309318150

> <PUBCHEM_SHAPE_MULTIPOLES>
482.83
16.44
3.13
1
5.74
1.79
-0.08
7.25
4.91
-2.96
-0.1
-0.78
-0.09
-0.35

> <PUBCHEM_SHAPE_SELFOVERLAP>
1054.035

> <PUBCHEM_SHAPE_VOLUME>
260.8

> <PUBCHEM_COORDINATE_TYPE>
2
5
10

$$$$
90354083
  -OEChem-05102415133D

 47 49  0     1  0  0  0  0  0999 V2000
    3.4388   -1.6428    1.6123 O   0  0  0  0  0  0  0  0  0  0  0  0
   -3.7694    2.1328    0.3217 O   0  0  0  0  0  0  0  0  0  0  0  0
    0.9951    1.2059   -1.1317 O   0  0  0  0  0  0  0  0  0  0  0  0
    1.2852   -1.0044   -0.4949 N   0  0  0  0  0  0  0  0  0  0  0  0
   -6.9954   -1.0317    0.9489 N   0  0  0  0  0  0  0  0  0  0  0  0
   -7.3601   -0.1942   -0.0369 N   0  0  0  0  0  0  0  0  0  0  0  0
    2.7254   -1.0333   -0.6456 C   0  0  1  0  0  0  0  0  0  0  0  0
    3.3948   -0.5745    0.6665 C   0  0  2  0  0  0  0  0  0  0  0  0
    4.7825   -0.0061    0.4462 C   0  0  0  0  0  0  0  0  0  0  0  0
    3.1582   -2.4223   -1.1129 C   0  0  0  0  0  0  0  0  0  0  0  0
    0.5367    0.1304   -0.7555 C   0  0  0  0  0  0  0  0  0  0  0  0
   -0.9259    0.0048   -0.5271 C   0  0  0  0  0  0  0  0  0  0  0  0
    5.8951   -0.8464    0.4883 C   0  0  0  0  0  0  0  0  0  0  0  0
    4.9469    1.3572    0.2014 C   0  0  0  0  0  0  0  0  0  0  0  0
   -3.6731   -0.2313   -0.1020 C   0  0  0  0  0  0  0  0  0  0  0  0
   -1.6813    1.1325   -0.2053 C   0  0  0  0  0  0  0  0  0  0  0  0
   -3.0548    1.0145    0.0072 C   0  0  0  0  0  0  0  0  0  0  0  0
   -1.5440   -1.2410   -0.6364 C   0  0  0  0  0  0  0  0  0  0  0  0
   -2.9175   -1.3590   -0.4235 C   0  0  0  0  0  0  0  0  0  0  0  0
    7.1722   -0.3234    0.2855 C   0  0  0  0  0  0  0  0  0  0  0  0
    6.2241    1.8803   -0.0015 C   0  0  0  0  0  0  0  0  0  0  0  0
   -5.0880   -0.3751    0.1113 C   0  0  0  0  0  0  0  0  0  0  0  0
    7.3367    1.0399    0.0403 C   0  0  0  0  0  0  0  0  0  0  0  0
   -5.6452   -1.1746    1.0792 C   0  0  0  0  0  0  0  0  0  0  0  0
   -6.1908    0.2037   -0.5449 C   0  0  0  0  0  0  0  0  0  0  0  0
   -3.0462    3.3583    0.4096 C   0  0  0  0  0  0  0  0  0  0  0  0
    2.9733   -0.3186   -1.4412 H   0  0  0  0  0  0  0  0  0  0  0  0
    2.7869    0.2102    1.1361 H   0  0  0  0  0  0  0  0  0  0  0  0
    0.8511   -1.8214   -0.0781 H   0  0  0  0  0  0  0  0  0  0  0  0
    4.2361   -2.4677   -1.2920 H   0  0  0  0  0  0  0  0  0  0  0  0
    2.6566   -2.6813   -2.0525 H   0  0  0  0  0  0  0  0  0  0  0  0
    2.8947   -3.1976   -0.3854 H   0  0  0  0  0  0  0  0  0  0  0  0
    5.7920   -1.9123    0.6721 H   0  0  0  0  0  0  0  0  0  0  0  0
    4.0877    2.0215    0.1635 H   0  0  0  0  0  0  0  0  0  0  0  0
    3.9187   -1.3298    2.3982 H   0  0  0  0  0  0  0  0  0  0  0  0
   -1.1477    2.0732   -0.1270 H   0  0  0  0  0  0  0  0  0  0  0  0
   -0.9988   -2.1375   -0.9165 H   0  0  0  0  0  0  0  0  0  0  0  0
   -3.3812   -2.3376   -0.5250 H   0  0  0  0  0  0  0  0  0  0  0  0
    8.0385   -0.9777    0.3169 H   0  0  0  0  0  0  0  0  0  0  0  0
    6.3523    2.9417   -0.1930 H   0  0  0  0  0  0  0  0  0  0  0  0
    8.3311    1.4470   -0.1182 H   0  0  0  0  0  0  0  0  0  0  0  0
   -5.2190   -1.8191    1.8357 H   0  0  0  0  0  0  0  0  0  0  0  0
   -6.1953    0.8987   -1.3729 H   0  0  0  0  0  0  0  0  0  0  0  0
   -7.7229   -1.4737    1.4967 H   0  0  0  0  0  0  0  0  0  0  0  0
   -3.7701    4.1394    0.6651 H   0  0  0  0  0  0  0  0  0  0  0  0
   -2.6069    3.6403   -0.5535 H   0  0  0  0  0  0  0  0  0  0  0  0
   -2.3085    3.3368    1.2191 H   0  0  0  0  0  0  0  0  0  0  0  0
  1  8  1  0  0  0  0
  1 35  1  0  0  0  0
  2 17  1  0  0  0  0
  2 26  1  0  0  0  0
  3 11  2  0  0  0  0
  4  7  1  0  0  0  0
  4 11  1  0  0  0  0
  4 29  1  0  0  0  0
  5  6  1  0  0  0  0
  5 24  1  0  0  0  0
  5 44  1  0  0  0  0
  6 25  2  0  0  0  0
  7  8  1  0  0  0  0
  7 10  1  0  0  0  0
  7 27  1  0  0  0  0
  8  9  1  0  0  0  0
  8 28  1  0  0  0  0
  9 13  2  0  0  0  0
  9 14  1  0  0  0  0
 10 30  1  0  0  0  0
 10 31  1  0  0  0  0
 10 32  1  0  0  0  0
 11 12  1  0  0  0  0
 12 16  2  0  0  0  0
 12 18  1  0  0  0  0
 13 20  1  0  0  0  0
 13 33  1  0  0  0  0
 14 21  2  0  0  0  0
 14 34  1  0  0  0  0
 15 17  2  0  0  0  0
 15 19  1  0  0  0  0
 15 22  1  0  0  0  0
 16 17  1  0  0  0  0
 16 36  1  0  0  0  0
 18 19  2  0  0  0  0
 18 37  1  0  0  0  0
 19 38  1  0  0  0  0
 20 23  2  0  0  0  0
 20 39  1  0  0  0  0
 21 23  1  0  0  0  0
 21 40  1  0  0  0  0
 22 24  2  0  0  0  0
 22 25  1  0  0  0  0
 23 41  1  0  0  0  0
 24 42  1  0  0  0  0
 25 43  1  0  0  0  0
 26 45  1  0  0  0  0
 26 46  1  0  0  0  0
 26 47  1  0  0  0  0
M  END
> <PUBCHEM_COMPOUND_CID>
90354083

> <PUBCHEM_CONFORMER_RMSD>
0.8

> <PUBCHEM_CONFORMER_DIVERSEORDER>
2
32
52
36
57
72
35
18
6
61
73
44
63
22
65
33
38
40
16
14
27
54
45
71
70
74
37
30
1
62
60
31
69
51
48
66
75
47
58
53
50
8
10
55
29
19
43
64
24
4
12
21
42
68
20
26
46
28
11
23
41
67
7
13
9
59
25
56
5
17
3
15
39
34
49

> <PUBCHEM_MMFF94_PARTIAL_CHARGES>
38
1 -0.68
11 0.54
12 0.09
13 -0.15
14 -0.15
15 0.05
16 -0.15
17 0.08
18 -0.15
19 -0.15
2 -0.36
20 -0.15
21 -0.15
22 -0.05
23 -0.15
24 -0.3
25 0.14
26 0.28
29 0.37
3 -0.57
33 0.15
34 0.15
35 0.4
36 0.15
37 0.15
38 0.15
39 0.15
4 -0.73
40 0.15
41 0.15
42 0.15
43 0.15
44 0.27
5 0.3
6 -0.71
7 0.3
8 0.42
9 -0.14

> <PUBCHEM_EFFECTIVE_ROTOR_COUNT>
7

> <PUBCHEM_PHARMACOPHORE_FEATURES>
10
1 1 acceptor
1 1 donor
1 2 acceptor
1 3 acceptor
1 4 donor
1 5 donor
1 6 acceptor
5 5 6 22 24 25 rings
6 12 15 16 17 18 19 rings
6 9 13 14 20 21 23 rings

> <PUBCHEM_HEAVY_ATOM_COUNT>
26

> <PUBCHEM_ATOM_DEF_STEREO_COUNT>
2

> <PUBCHEM_ATOM_UDEF_STEREO_COUNT>
0

> <PUBCHEM_BOND_DEF_STEREO_COUNT>
0

> <PUBCHEM_BOND_UDEF_STEREO_COUNT>
0

> <PUBCHEM_ISOTOPIC_ATOM_COUNT>
0

> <PUBCHEM_COMPONENT_COUNT>
1

> <PUBCHEM_CACTVS_TAUTO_COUNT>
7

> <PUBCHEM_CONFORMER_ID>
0562B1A300000002

> <PUBCHEM_MMFF94_ENERGY>
76.104

> <PUBCHEM_FEATURE_SELFOVERLAP>
50.748

> <PUBCHEM_SHAPE_FINGERPRINT>
10 15 18410012156269149998
10613725 11 9871750200048729416
106641 1 18260548965073627066
10835480 77 18337667513041297237
11135609 127 11599422730065233370
11315181 36 18040719169264228633
11724838 91 18408884074808909238
11796584 16 7853566929395768416
12236239 1 18186518791324907311
12516196 113 17095239224570850340
12596602 18 18113896035536222913
12643181 29 8286198336049023508
13073987 5 18337673005565684747
13533116 47 17313656058657269554
13540713 4 17913504441490969655
14150022 121 17704080556365032073
14251732 16 18334576858141685568
14251764 18 18413107277127075524
14341114 176 18409729577939330012
14394314 77 18186802449010596537
14933364 13 18413671318629885448
15183329 4 8358263652574747708
15338160 23 17560531595149721953
17844677 252 18271251504226958142
18608769 82 18343020038281556755
19611394 137 18262810686267054435
19841028 212 16805876295513419179
21033648 29 17559941156624227873
21065198 48 18262514789059006784
21267235 1 18408605847323209926
21792961 116 17703794678977821850
22224240 67 18341889723401404982
23559900 14 18338791346773516609
3004659 81 14201121206387254294
34797466 226 17775293776748275044
350125 39 18413669127870010541
3545911 37 18060419110245315182
4325135 7 18408603673721624360
4340502 62 17821727247826866474
5104073 3 18267592307902071587
59682541 35 18340769342268860963
67856867 119 18189339133409024309

> <PUBCHEM_SHAPE_MULTIPOLES>
502.52
20.93
2.28
0.98
3.93
1.3
0.1
1.11
4.41
-0.12
0
0.05
-0.32
0.19

> <PUBCHEM_SHAPE_SELFOVERLAP>
1084.907

> <PUBCHEM_SHAPE_VOLUME>
276.7

> <PUBCHEM_COORDINATE_TYPE>
2
5
10

$$$$
90354121
  -OEChem-05102415133D

 40 42  0     0  0  0  0  0  0999 V2000
    3.5571   -1.9528    1.5083 Cl  0  0  0  0  0  0  0  0  0  0  0  0
    5.5681   -2.9696   -0.7825 Cl  0  0  0  0  0  0  0  0  0  0  0  0
   -2.4902   -1.9178    0.1555 O   0  0  0  0  0  0  0  0  0  0  0  0
    1.2588    2.6459   -0.0772 O   0  0  0  0  0  0  0  0  0  0  0  0
    1.6516    0.7557    1.2073 N   0  0  0  0  0  0  0  0  0  0  0  0
   -6.7100   -0.2006   -0.0779 N   0  0  0  0  0  0  0  0  0  0  0  0
   -6.4702   -0.9748   -1.1499 N   0  0  0  0  0  0  0  0  0  0  0  0
   -3.1802    0.3634   -0.1572 C   0  0  0  0  0  0  0  0  0  0  0  0
   -0.5352    1.1658    0.2215 C   0  0  0  0  0  0  0  0  0  0  0  0
   -2.1915   -0.5886    0.0925 C   0  0  0  0  0  0  0  0  0  0  0  0
    3.0333    1.0467    1.5158 C   0  0  0  0  0  0  0  0  0  0  0  0
   -0.8690   -0.1873    0.2818 C   0  0  0  0  0  0  0  0  0  0  0  0
   -4.5500   -0.0282   -0.3536 C   0  0  0  0  0  0  0  0  0  0  0  0
   -2.8462    1.7164   -0.2178 C   0  0  0  0  0  0  0  0  0  0  0  0
   -1.5239    2.1177   -0.0282 C   0  0  0  0  0  0  0  0  0  0  0  0
    3.9676    0.5099    0.4703 C   0  0  0  0  0  0  0  0  0  0  0  0
    0.8432    1.5845    0.4207 C   0  0  0  0  0  0  0  0  0  0  0  0
    4.2737   -0.8479    0.3788 C   0  0  0  0  0  0  0  0  0  0  0  0
    4.5340    1.4147   -0.4278 C   0  0  0  0  0  0  0  0  0  0  0  0
   -5.5930    0.3892    0.4368 C   0  0  0  0  0  0  0  0  0  0  0  0
   -5.1492   -0.8656   -1.3136 C   0  0  0  0  0  0  0  0  0  0  0  0
    5.1461   -1.3011   -0.6110 C   0  0  0  0  0  0  0  0  0  0  0  0
    5.4065    0.9615   -1.4173 C   0  0  0  0  0  0  0  0  0  0  0  0
    5.7125   -0.3964   -1.5091 C   0  0  0  0  0  0  0  0  0  0  0  0
   -2.8440   -2.4408    1.4336 C   0  0  0  0  0  0  0  0  0  0  0  0
    3.2615    0.6328    2.5041 H   0  0  0  0  0  0  0  0  0  0  0  0
    3.1453    2.1334    1.6146 H   0  0  0  0  0  0  0  0  0  0  0  0
   -0.1202   -0.9583    0.4416 H   0  0  0  0  0  0  0  0  0  0  0  0
   -3.6004    2.4751   -0.4144 H   0  0  0  0  0  0  0  0  0  0  0  0
   -1.2851    3.1770   -0.0754 H   0  0  0  0  0  0  0  0  0  0  0  0
    1.2624   -0.0748    1.6404 H   0  0  0  0  0  0  0  0  0  0  0  0
    4.3060    2.4759   -0.3731 H   0  0  0  0  0  0  0  0  0  0  0  0
   -5.6470    1.0360    1.3017 H   0  0  0  0  0  0  0  0  0  0  0  0
   -4.6819   -1.4023   -2.1274 H   0  0  0  0  0  0  0  0  0  0  0  0
    5.8472    1.6659   -2.1168 H   0  0  0  0  0  0  0  0  0  0  0  0
   -7.6637   -0.1191    0.2515 H   0  0  0  0  0  0  0  0  0  0  0  0
    6.3941   -0.7315   -2.2868 H   0  0  0  0  0  0  0  0  0  0  0  0
   -3.7103   -1.9163    1.8482 H   0  0  0  0  0  0  0  0  0  0  0  0
   -1.9970   -2.3661    2.1230 H   0  0  0  0  0  0  0  0  0  0  0  0
   -3.1018   -3.4964    1.3116 H   0  0  0  0  0  0  0  0  0  0  0  0
  1 18  1  0  0  0  0
  2 22  1  0  0  0  0
  3 10  1  0  0  0  0
  3 25  1  0  0  0  0
  4 17  2  0  0  0  0
  5 11  1  0  0  0  0
  5 17  1  0  0  0  0
  5 31  1  0  0  0  0
  6  7  1  0  0  0  0
  6 20  1  0  0  0  0
  6 36  1  0  0  0  0
  7 21  2  0  0  0  0
  8 10  2  0  0  0  0
  8 13  1  0  0  0  0
  8 14  1  0  0  0  0
  9 12  2  0  0  0  0
  9 15  1  0  0  0  0
  9 17  1  0  0  0  0
 10 12  1  0  0  0  0
 11 16  1  0  0  0  0
 11 26  1  0  0  0  0
 11 27  1  0  0  0  0
 12 28  1  0  0  0  0
 13 20  2  0  0  0  0
 13 21  1  0  0  0  0
 14 15  2  0  0  0  0
 14 29  1  0  0  0  0
 15 30  1  0  0  0  0
 16 18  2  0  0  0  0
 16 19  1  0  0  0  0
 18 22  1  0  0  0  0
 19 23  2  0  0  0  0
 19 32  1  0  0  0  0
 20 33  1  0  0  0  0
 21 34  1  0  0  0  0
 22 24  2  0  0  0  0
 23 24  1  0  0  0  0
 23 35  1  0  0  0  0
 24 37  1  0  0  0  0
 25 38  1  0  0  0  0
 25 39  1  0  0  0  0
 25 40  1  0  0  0  0
M  END
> <PUBCHEM_COMPOUND_CID>
90354121

> <PUBCHEM_CONFORMER_RMSD>
0.8

> <PUBCHEM_CONFORMER_DIVERSEORDER>
1
23
48
58
31
15
52
51
69
54
55
46
60
24
45
36
67
29
68
28
62
44
47
66
14
57
6
22
56
32
8
17
65
49
11
39
71
25
50
53
64
41
12
21
18
37
38
4
13
9
59
72
63
30
34
33
40
19
61
43
5
20
26
7
16
70
42
27
10
3
2
35

> <PUBCHEM_MMFF94_PARTIAL_CHARGES>
35
1 -0.18
10 0.08
11 0.44
12 -0.15
13 -0.05
14 -0.15
15 -0.15
16 -0.14
17 0.54
18 0.18
19 -0.15
2 -0.18
20 -0.3
21 0.14
22 0.18
23 -0.15
24 -0.15
25 0.28
28 0.15
29 0.15
3 -0.36
30 0.15
31 0.37
32 0.15
33 0.15
34 0.15
35 0.15
36 0.27
37 0.15
4 -0.57
5 -0.73
6 0.3
7 -0.71
8 0.05
9 0.09

> <PUBCHEM_EFFECTIVE_ROTOR_COUNT>
6

> <PUBCHEM_PHARMACOPHORE_FEATURES>
8
1 3 acceptor
1 4 acceptor
1 5 donor
1 6 donor
1 7 acceptor
5 6 7 13 20 21 rings
6 16 18 19 22 23 24 rings
6 8 9 10 12 14 15 rings

> <PUBCHEM_HEAVY_ATOM_COUNT>
25

> <PUBCHEM_ATOM_DEF_STEREO_COUNT>
0

> <PUBCHEM_ATOM_UDEF_STEREO_COUNT>
0

> <PUBCHEM_BOND_DEF_STEREO_COUNT>
0

> <PUBCHEM_BOND_UDEF_STEREO_COUNT>
0

> <PUBCHEM_ISOTOPIC_ATOM_COUNT>
0

> <PUBCHEM_COMPONENT_COUNT>
1

> <PUBCHEM_CACTVS_TAUTO_COUNT>
7

> <PUBCHEM_CONFORMER_ID>
0562B1C900000001

> <PUBCHEM_MMFF94_ENERGY>
72.0416

> <PUBCHEM_FEATURE_SELFOVERLAP>
40.597

> <PUBCHEM_SHAPE_FINGERPRINT>
11524674 6 15697997453507168349
11578080 2 17316467407226508941
12166972 35 17346319344877582793
12422481 6 16559028333143374429
12516196 113 17846495946175936872
12616971 3 14692560027007117160
12760667 363 18272092664654930106
12788726 201 18341612568882206905
12925494 130 10014494254149624459
13150687 139 18263659493377423572
13402501 40 18342459222768489758
13533116 47 18060134383609454025
13617811 41 18040427811161848253
13685833 64 17775847904596029904
13782708 43 16414905466135517175
13914758 101 16343714205697979107
14347332 77 18341891848982974661
14617045 38 18409169908876920250
14931854 50 18260552169752538078
15183329 4 18411418410477274053
15348495 7 13758062039423276271
15475509 8 18408889503806281389
15510800 12 17344635834236966974
15575132 122 17095797733797184789
15840311 113 11242791636749348295
17349148 13 16917071091883225669
19319366 153 17676477337680928810
20403669 9 18201722829935400646
21150785 3 16298382505184208835
21279426 13 18337942386458029925
21641784 216 16733259058552111029
21682296 61 18272091574282109815
221357 26 18412262822564851528
2215653 11 18412541037518764895
22849339 104 17822296841931353227
23016692 55 18272654541067169364
23522609 53 18056509255171316089
23559900 14 18263643033839216401
23569943 247 18200876154601622307
3004659 81 18261391118709799442
3472631 163 12107800600846326906
34797466 226 15430044227386278611
404807 14 16624927339311586999
46194498 28 17676488384542243532
465052 167 17561084705042501396
5104073 3 17203323360970593376
59755656 215 18340481184755268423
86090 222 16486711190258678518
960060 61 18408605872839812556

> <PUBCHEM_SHAPE_MULTIPOLES>
491.55
16.78
2.61
1.32
5.67
0.7
0.05
6.65
-6.36
-1.91
0.24
-0.98
0.38
0.08

> <PUBCHEM_SHAPE_SELFOVERLAP>
1052.118

> <PUBCHEM_SHAPE_VOLUME>
273.9

> <PUBCHEM_COORDINATE_TYPE>
2
5
10

$$$$
118663027
  -OEChem-05102415133D

 45 47  0     0  0  0  0  0  0999 V2000
    5.2975    1.9479   -0.6905 S   0  0  0  0  0  0  0  0  0  0  0  0
   -2.5706    1.8677   -0.0420 O   0  0  0  0  0  0  0  0  0  0  0  0
   -0.2105   -3.4237   -1.1716 O   0  0  0  0  0  0  0  0  0  0  0  0
    6.6544    2.2648   -0.2679 O   0  0  0  0  0  0  0  0  0  0  0  0
    5.0019    1.7795   -2.1065 O   0  0  0  0  0  0  0  0  0  0  0  0
    0.9720   -1.7170   -0.1392 N   0  0  0  0  0  0  0  0  0  0  0  0
   -7.1870    1.0226    0.1291 N   0  0  0  0  0  0  0  0  0  0  0  0
    4.2315    3.1156   -0.0429 N   0  0  0  0  0  0  0  0  0  0  0  0
   -6.6432    2.0537    0.7981 N   0  0  0  0  0  0  0  0  0  0  0  0
    3.3597   -1.4386    0.2950 C   0  0  0  0  0  0  0  0  0  0  0  0
    2.2829   -2.3073   -0.2880 C   0  0  0  0  0  0  0  0  0  0  0  0
   -3.8239   -0.1831   -0.0073 C   0  0  0  0  0  0  0  0  0  0  0  0
   -1.4448   -1.5882   -0.3934 C   0  0  0  0  0  0  0  0  0  0  0  0
    4.7762    0.5139    0.1584 C   0  0  0  0  0  0  0  0  0  0  0  0
    3.7760   -0.2931   -0.3836 C   0  0  0  0  0  0  0  0  0  0  0  0
   -2.6166    0.5068   -0.1191 C   0  0  0  0  0  0  0  0  0  0  0  0
   -1.4271   -0.1958   -0.3120 C   0  0  0  0  0  0  0  0  0  0  0  0
   -0.2051   -2.3209   -0.5965 C   0  0  0  0  0  0  0  0  0  0  0  0
    3.9438   -1.7770    1.5157 C   0  0  0  0  0  0  0  0  0  0  0  0
   -3.8415   -1.5756   -0.0884 C   0  0  0  0  0  0  0  0  0  0  0  0
   -2.6520   -2.2782   -0.2816 C   0  0  0  0  0  0  0  0  0  0  0  0
   -5.0619    0.5216    0.1902 C   0  0  0  0  0  0  0  0  0  0  0  0
    5.3604    0.1755    1.3792 C   0  0  0  0  0  0  0  0  0  0  0  0
    4.9443   -0.9701    2.0577 C   0  0  0  0  0  0  0  0  0  0  0  0
   -6.2824    0.0777   -0.2572 C   0  0  0  0  0  0  0  0  0  0  0  0
   -5.3449    1.7420    0.8322 C   0  0  0  0  0  0  0  0  0  0  0  0
   -1.2889    2.4792   -0.1679 C   0  0  0  0  0  0  0  0  0  0  0  0
    2.4654   -2.4793   -1.3555 H   0  0  0  0  0  0  0  0  0  0  0  0
    2.2645   -3.2948    0.1881 H   0  0  0  0  0  0  0  0  0  0  0  0
    3.3092   -0.0351   -1.3309 H   0  0  0  0  0  0  0  0  0  0  0  0
    0.9157   -0.8556    0.3945 H   0  0  0  0  0  0  0  0  0  0  0  0
   -0.4797    0.3100   -0.4473 H   0  0  0  0  0  0  0  0  0  0  0  0
    3.6276   -2.6652    2.0561 H   0  0  0  0  0  0  0  0  0  0  0  0
   -4.7602   -2.1484    0.0095 H   0  0  0  0  0  0  0  0  0  0  0  0
   -2.6854   -3.3633   -0.3350 H   0  0  0  0  0  0  0  0  0  0  0  0
    6.1362    0.7928    1.8232 H   0  0  0  0  0  0  0  0  0  0  0  0
    5.3977   -1.2326    3.0091 H   0  0  0  0  0  0  0  0  0  0  0  0
   -6.5974   -0.7964   -0.8103 H   0  0  0  0  0  0  0  0  0  0  0  0
   -4.6747    2.4218    1.3388 H   0  0  0  0  0  0  0  0  0  0  0  0
   -8.1866    1.0285   -0.0313 H   0  0  0  0  0  0  0  0  0  0  0  0
    4.6237    3.8159    0.5982 H   0  0  0  0  0  0  0  0  0  0  0  0
    3.4944    3.4816   -0.6579 H   0  0  0  0  0  0  0  0  0  0  0  0
   -0.8554    2.3121   -1.1600 H   0  0  0  0  0  0  0  0  0  0  0  0
   -0.6148    2.1834    0.6434 H   0  0  0  0  0  0  0  0  0  0  0  0
   -1.4399    3.5597   -0.0707 H   0  0  0  0  0  0  0  0  0  0  0  0
  1  4  2  0  0  0  0
  1  5  2  0  0  0  0
  1  8  1  0  0  0  0
  1 14  1  0  0  0  0
  2 16  1  0  0  0  0
  2 27  1  0  0  0  0
  3 18  2  0  0  0  0
  6 11  1  0  0  0  0
  6 18  1  0  0  0  0
  6 31  1  0  0  0  0
  7  9  1  0  0  0  0
  7 25  1  0  0  0  0
  7 40  1  0  0  0  0
  8 41  1  0  0  0  0
  8 42  1  0  0  0  0
  9 26  2  0  0  0  0
 10 11  1  0  0  0  0
 10 15  2  0  0  0  0
 10 19  1  0  0  0  0
 11 28  1  0  0  0  0
 11 29  1  0  0  0  0
 12 16  2  0  0  0  0
 12 20  1  0  0  0  0
 12 22  1  0  0  0  0
 13 17  2  0  0  0  0
 13 18  1  0  0  0  0
 13 21  1  0  0  0  0
 14 15  1  0  0  0  0
 14 23  2  0  0  0  0
 15 30  1  0  0  0  0
 16 17  1  0  0  0  0
 17 32  1  0  0  0  0
 19 24  2  0  0  0  0
 19 33  1  0  0  0  0
 20 21  2  0  0  0  0
 20 34  1  0  0  0  0
 21 35  1  0  0  0  0
 22 25  2  0  0  0  0
 22 26  1  0  0  0  0
 23 24  1  0  0  0  0
 23 36  1  0  0  0  0
 24 37  1  0  0  0  0
 25 38  1  0  0  0  0
 26 39  1  0  0  0  0
 27 43  1  0  0  0  0
 27 44  1  0  0  0  0
 27 45  1  0  0  0  0
M  END
> <PUBCHEM_COMPOUND_CID>
118663027

> <PUBCHEM_CONFORMER_RMSD>
0.8

> <PUBCHEM_CONFORMER_DIVERSEORDER>
31
83
157
4
120
248
261
194
267
84
148
139
2
213
271
245
168
144
66
159
15
234
273
249
269
178
129
265
9
276
72
137
209
44
130
109
179
73
132
257
195
215
143
150
246
160
184
140
85
238
191
42
70
161
116
16
81
138
86
231
39
82
123
282
3
68
214
268
275
180
240
6
171
18
21
218
200
251
33
28
45
136
186
206
270
93
24
263
264
58
121
205
43
35
266
55
142
255
244
98
189
75
111
164
193
60
252
237
117
285
119
36
250
192
167
53
10
260
52
247
227
226
125
277
100
210
49
110
59
29
202
128
203
172
48
199
145
279
208
1
281
216
197
233
284
8
54
188
221
259
26
153
217
38
280
174
47
124
163
57
185
56
78
223
254
112
40
166
149
225
135
169
79
239
106
131
104
64
170
272
122
118
229
235
88
222
274
97
107
177
14
253
91
207
102
151
51
219
30
71
90
220
92
204
32
228
182
80
27
283
19
232
243
22
241
190
156
61
256
146
62
278
12
224
67
176
212
175
76
50
187
89
127
230
69
94
158
262
211
41
23
95
115
17
74
286
99
65
154
77
113
183
147
20
87
5
105
96
34
181
162
46
201
37
173
7
258
198
152
133
13
165
108
236
11
101
242
141
126
25
103
134
155
63
114
196

> <PUBCHEM_MMFF94_PARTIAL_CHARGES>
40
1 1.45
10 -0.14
11 0.44
12 0.05
13 0.09
14 -0.01
15 -0.15
16 0.08
17 -0.15
18 0.54
19 -0.15
2 -0.36
20 -0.15
21 -0.15
22 -0.05
23 -0.15
24 -0.15
25 -0.3
26 0.14
27 0.28
3 -0.57
30 0.15
31 0.37
32 0.15
33 0.15
34 0.15
35 0.15
36 0.15
37 0.15
38 0.15
39 0.15
4 -0.65
40 0.27
41 0.42
42 0.42
5 -0.65
6 -0.73
7 0.3
8 -0.98
9 -0.71

> <PUBCHEM_EFFECTIVE_ROTOR_COUNT>
7

> <PUBCHEM_PHARMACOPHORE_FEATURES>
11
1 2 acceptor
1 3 acceptor
1 4 acceptor
1 5 acceptor
1 6 donor
1 7 donor
1 8 donor
1 9 acceptor
5 7 9 22 25 26 rings
6 10 14 15 19 23 24 rings
6 12 13 16 17 20 21 rings

> <PUBCHEM_HEAVY_ATOM_COUNT>
27

> <PUBCHEM_ATOM_DEF_STEREO_COUNT>
0

> <PUBCHEM_ATOM_UDEF_STEREO_COUNT>
0

> <PUBCHEM_BOND_DEF_STEREO_COUNT>
0

> <PUBCHEM_BOND_UDEF_STEREO_COUNT>
0

> <PUBCHEM_ISOTOPIC_ATOM_COUNT>
0

> <PUBCHEM_COMPONENT_COUNT>
1

> <PUBCHEM_CACTVS_TAUTO_COUNT>
9

> <PUBCHEM_CONFORMER_ID>
0712A7730000001F

> <PUBCHEM_MMFF94_ENERGY>
58.8977

> <PUBCHEM_FEATURE_SELFOVERLAP>
55.841

> <PUBCHEM_SHAPE_FINGERPRINT>
10 15 18261117378921820307
10906281 52 18341342115308346899
11578080 2 12750698179965349051
12422481 6 17748824086291803637
12596602 18 17748824137414738043
12788726 201 17774730783154461512
12978246 48 18410288095428804536
13533116 47 17168141170482645418
13782708 43 12973903511174778665
14341114 328 18261107478447423842
14394314 77 18337956787040943669
14400156 188 16529503396839246331
14790565 3 18341898467933499793
14840074 17 18260272962012131749
15001296 14 18335702805721098908
15183329 4 18343585148788255033
15238133 3 18272362105956379378
15274700 259 17823958097407547181
16067689 134 17914635881537677937
16760501 71 18408324393172664553
17980427 23 18334012822189747863
19319366 153 18113889447204578026
21302155 148 18412546539187423554
21585481 104 13686306759965834227
21814621 53 16009297700717383477
23559900 14 18199196100544087950
245318 6 18042702760822892132
2748736 6 18341605997787601445
3472631 163 18343305889734607222
3680242 22 18337390439798981322
38570 142 17822870787786431742
397830 11 17458920313651124163
5104073 3 18040152945902533506
550186 72 18411136901627089725
5951187 136 18200885079812306004
7808743 9 18269552896517950470
7970288 3 8574438607857957360
960060 61 11743833686204165562

> <PUBCHEM_SHAPE_MULTIPOLES>
516.1
18.12
3.47
1.21
5.93
0.1
-0.19
12.35
-3.24
-1.73
0.72
-1.96
-0.08
-2.64

> <PUBCHEM_SHAPE_SELFOVERLAP>
1107.576

> <PUBCHEM_SHAPE_VOLUME>
286.6

> <PUBCHEM_COORDINATE_TYPE>
2
5
10

$$$$
85469693
  -OEChem-05102415133D

 49 52  0     1  0  0  0  0  0999 V2000
   -3.0289   -1.5358   -1.2874 O   0  0  0  0  0  0  0  0  0  0  0  0
   -0.2900    3.5317    0.0376 O   0  0  0  0  0  0  0  0  0  0  0  0
    0.8410    1.5512   -0.3765 N   0  0  0  0  0  0  0  0  0  0  0  0
   -6.9004   -1.6380    1.1231 N   0  0  0  0  0  0  0  0  0  0  0  0
   -7.1794   -1.6144   -0.1914 N   0  0  0  0  0  0  0  0  0  0  0  0
    2.1671    2.1371   -0.4738 C   0  0  1  0  0  0  0  0  0  0  0  0
    3.2376    1.1981   -0.0301 C   0  0  0  0  0  0  0  0  0  0  0  0
    3.4586    0.0119   -0.7305 C   0  0  0  0  0  0  0  0  0  0  0  0
    4.4616   -0.8835   -0.3251 C   0  0  0  0  0  0  0  0  0  0  0  0
    2.3727    2.6656   -1.9012 C   0  0  0  0  0  0  0  0  0  0  0  0
    5.2517   -0.5714    0.8068 C   0  0  0  0  0  0  0  0  0  0  0  0
    4.0146    1.5050    1.0830 C   0  0  0  0  0  0  0  0  0  0  0  0
    5.0155    0.6270    1.4999 C   0  0  0  0  0  0  0  0  0  0  0  0
   -0.2831    2.3144   -0.1258 C   0  0  0  0  0  0  0  0  0  0  0  0
   -1.5604    1.5619   -0.0295 C   0  0  0  0  0  0  0  0  0  0  0  0
    4.6977   -2.0820   -1.0181 C   0  0  0  0  0  0  0  0  0  0  0  0
   -3.9583    0.1478    0.1548 C   0  0  0  0  0  0  0  0  0  0  0  0
    6.2547   -1.4669    1.2124 C   0  0  0  0  0  0  0  0  0  0  0  0
   -1.7100    0.3516   -0.7064 C   0  0  0  0  0  0  0  0  0  0  0  0
   -2.9089   -0.3556   -0.6143 C   0  0  0  0  0  0  0  0  0  0  0  0
   -2.6098    2.0653    0.7396 C   0  0  0  0  0  0  0  0  0  0  0  0
   -3.8087    1.3584    0.8315 C   0  0  0  0  0  0  0  0  0  0  0  0
   -5.2020   -0.5658    0.2647 C   0  0  0  0  0  0  0  0  0  0  0  0
    5.6985   -2.9601   -0.6012 C   0  0  0  0  0  0  0  0  0  0  0  0
    6.4755   -2.6532    0.5119 C   0  0  0  0  0  0  0  0  0  0  0  0
   -5.7271   -1.0235    1.4486 C   0  0  0  0  0  0  0  0  0  0  0  0
   -6.1384   -0.9581   -0.7105 C   0  0  0  0  0  0  0  0  0  0  0  0
   -2.6414   -2.7185   -0.5921 C   0  0  0  0  0  0  0  0  0  0  0  0
    2.1748    3.0165    0.1839 H   0  0  0  0  0  0  0  0  0  0  0  0
    2.8467   -0.2288   -1.5982 H   0  0  0  0  0  0  0  0  0  0  0  0
    0.7724    0.5424   -0.4556 H   0  0  0  0  0  0  0  0  0  0  0  0
    2.2787    1.8702   -2.6491 H   0  0  0  0  0  0  0  0  0  0  0  0
    1.6265    3.4293   -2.1471 H   0  0  0  0  0  0  0  0  0  0  0  0
    3.3649    3.1167   -2.0117 H   0  0  0  0  0  0  0  0  0  0  0  0
    3.8552    2.4244    1.6402 H   0  0  0  0  0  0  0  0  0  0  0  0
    5.6107    0.8871    2.3728 H   0  0  0  0  0  0  0  0  0  0  0  0
    4.1026   -2.3426   -1.8909 H   0  0  0  0  0  0  0  0  0  0  0  0
    6.8740   -1.2475    2.0796 H   0  0  0  0  0  0  0  0  0  0  0  0
   -0.9283   -0.0538   -1.3427 H   0  0  0  0  0  0  0  0  0  0  0  0
   -2.5112    3.0045    1.2774 H   0  0  0  0  0  0  0  0  0  0  0  0
   -4.6148    1.7709    1.4340 H   0  0  0  0  0  0  0  0  0  0  0  0
    5.8709   -3.8837   -1.1460 H   0  0  0  0  0  0  0  0  0  0  0  0
    7.2544   -3.3373    0.8360 H   0  0  0  0  0  0  0  0  0  0  0  0
   -5.3842   -0.9737    2.4730 H   0  0  0  0  0  0  0  0  0  0  0  0
   -6.1095   -0.7947   -1.7788 H   0  0  0  0  0  0  0  0  0  0  0  0
   -7.5571   -2.0930    1.7449 H   0  0  0  0  0  0  0  0  0  0  0  0
   -2.8417   -3.5768   -1.2394 H   0  0  0  0  0  0  0  0  0  0  0  0
   -3.2147   -2.8381    0.3323 H   0  0  0  0  0  0  0  0  0  0  0  0
   -1.5705   -2.6938   -0.3669 H   0  0  0  0  0  0  0  0  0  0  0  0
  1 20  1  0  0  0  0
  1 28  1  0  0  0  0
  2 14  2  0  0  0  0
  3  6  1  0  0  0  0
  3 14  1  0  0  0  0
  3 31  1  0  0  0  0
  4  5  1  0  0  0  0
  4 26  1  0  0  0  0
  4 46  1  0  0  0  0
  5 27  2  0  0  0  0
  6  7  1  0  0  0  0
  6 10  1  0  0  0  0
  6 29  1  0  0  0  0
  7  8  2  0  0  0  0
  7 12  1  0  0  0  0
  8  9  1  0  0  0  0
  8 30  1  0  0  0  0
  9 11  1  0  0  0  0
  9 16  2  0  0  0  0
 10 32  1  0  0  0  0
 10 33  1  0  0  0  0
 10 34  1  0  0  0  0
 11 13  1  0  0  0  0
 11 18  2  0  0  0  0
 12 13  2  0  0  0  0
 12 35  1  0  0  0  0
 13 36  1  0  0  0  0
 14 15  1  0  0  0  0
 15 19  2  0  0  0  0
 15 21  1  0  0  0  0
 16 24  1  0  0  0  0
 16 37  1  0  0  0  0
 17 20  2  0  0  0  0
 17 22  1  0  0  0  0
 17 23  1  0  0  0  0
 18 25  1  0  0  0  0
 18 38  1  0  0  0  0
 19 20  1  0  0  0  0
 19 39  1  0  0  0  0
 21 22  2  0  0  0  0
 21 40  1  0  0  0  0
 22 41  1  0  0  0  0
 23 26  2  0  0  0  0
 23 27  1  0  0  0  0
 24 25  2  0  0  0  0
 24 42  1  0  0  0  0
 25 43  1  0  0  0  0
 26 44  1  0  0  0  0
 27 45  1  0  0  0  0
 28 47  1  0  0  0  0
 28 48  1  0  0  0  0
 28 49  1  0  0  0  0
M  END
> <PUBCHEM_COMPOUND_CID>
85469693

> <PUBCHEM_CONFORMER_RMSD>
0.8

> <PUBCHEM_CONFORMER_DIVERSEORDER>
1
46
33
66
58
17
18
5
34
67
57
59
27
40
70
50
55
30
47
12
36
52
41
28
8
60
24
9
63
64
53
43
23
31
21
65
16
62
22
45
69
54
71
44
48
51
49
26
56
37
19
15
4
10
42
13
32
38
14
6
68
11
29
3
35
7
61
39
25
2
20

> <PUBCHEM_MMFF94_PARTIAL_CHARGES>
39
1 -0.36
12 -0.15
13 -0.15
14 0.54
15 0.09
16 -0.15
17 0.05
18 -0.15
19 -0.15
2 -0.57
20 0.08
21 -0.15
22 -0.15
23 -0.05
24 -0.15
25 -0.15
26 -0.3
27 0.14
28 0.28
3 -0.73
30 0.15
31 0.37
35 0.15
36 0.15
37 0.15
38 0.15
39 0.15
4 0.3
40 0.15
41 0.15
42 0.15
43 0.15
44 0.15
45 0.15
46 0.27
5 -0.71
6 0.44
7 -0.14
8 -0.15

> <PUBCHEM_EFFECTIVE_ROTOR_COUNT>
6

> <PUBCHEM_PHARMACOPHORE_FEATURES>
9
1 1 acceptor
1 2 acceptor
1 3 donor
1 4 donor
1 5 acceptor
5 4 5 23 26 27 rings
6 15 17 19 20 21 22 rings
6 7 8 9 11 12 13 rings
6 9 11 16 18 24 25 rings

> <PUBCHEM_HEAVY_ATOM_COUNT>
28

> <PUBCHEM_ATOM_DEF_STEREO_COUNT>
1

> <PUBCHEM_ATOM_UDEF_STEREO_COUNT>
0

> <PUBCHEM_BOND_DEF_STEREO_COUNT>
0

> <PUBCHEM_BOND_UDEF_STEREO_COUNT>
0

> <PUBCHEM_ISOTOPIC_ATOM_COUNT>
0

> <PUBCHEM_COMPONENT_COUNT>
1

> <PUBCHEM_CACTVS_TAUTO_COUNT>
9

> <PUBCHEM_CONFORMER_ID>
051829FD00000001

> <PUBCHEM_MMFF94_ENERGY>
86.0602

> <PUBCHEM_FEATURE_SELFOVERLAP>
45.699

> <PUBCHEM_SHAPE_FINGERPRINT>
10319926 262 17560529386924412596
10939801 23 18271805783137183654
10981352 41 18201998828728939526
11135609 12 18334851753650589296
11135926 11 18120365717000894732
117089 54 18335434438715700170
12107183 9 18198352753592646921
12166972 35 17603591820013467374
12422481 6 17988931028606924159
12623949 98 18201727202655168038
13533116 47 18339363066654445952
13540713 5 18263385636544814556
13551218 46 18342740732505482071
1361 4 18044382853672054931
1361 87 17531547449911026762
14211702 104 18336552693859739443
14216079 64 18410291411291081043
14251740 57 18410858746400817352
14528608 73 8574437512762531793
15001296 14 18189046650140827730
15188451 53 18413384324151013025
15510800 12 18186810192171798746
17492 89 18409451354211301124
1768 124 18272366507527984038
1813 80 17967534554233118436
19301679 30 18412267216137190241
1979834 28 17632588136345259414
20028762 73 18411419484209289010
20691028 202 10015863189048913963
208703 8 18043236956376870850
21585482 310 18187094961478401035
21682296 61 18408888434527833531
21792934 111 18272091570371965673
229767 44 18202562869424881423
229767 8 17910965638931211406
23522609 53 18048633398174774388
270888 7 9799685991692730376
2748736 6 9943518575136472586
3004659 81 18186523236806391804
3383291 50 18408041831928801811
3388396 114 16227487034780815676
3472631 163 8358258141926388160
3504750 166 18131351895878180029
3680242 22 18341058509637487031
3886686 26 17410511882817173697
4461854 278 18130791170518527926
46194498 28 17385721456387062836
474113 269 18343576361880772887
5104073 3 18060703862039831008
513202 73 18260833687884643293
54039377 194 18335144155420129814
559249 180 18336825304235051313
56633871 153 18342174492417480895
5718773 13 18262233318694177410
59682541 52 13406788901098897944
6712543 237 16630527311013717983
7970288 3 18333450911322889098

> <PUBCHEM_SHAPE_MULTIPOLES>
549.55
19.11
3.57
1.32
6.39
0.43
-0.02
-17.37
-4.94
-2.22
0.65
-0.52
0.09
-0.2

> <PUBCHEM_SHAPE_SELFOVERLAP>
1214.55

> <PUBCHEM_SHAPE_VOLUME>
296.4

> <PUBCHEM_COORDINATE_TYPE>
2
5
10

$$$$
90354228
  -OEChem-05102415133D

 46 48  0     0  0  0  0  0  0999 V2000
   -1.6885   -0.1396   -1.6290 O   0  0  0  0  0  0  0  0  0  0  0  0
    3.0266   -1.8905   -1.0164 O   0  0  0  0  0  0  0  0  0  0  0  0
   -1.8941    1.3329    0.1485 N   0  0  0  0  0  0  0  0  0  0  0  0
    6.3600    0.2531    1.2438 N   0  0  0  0  0  0  0  0  0  0  0  0
    6.7025    0.1060   -0.0474 N   0  0  0  0  0  0  0  0  0  0  0  0
   -3.3403    1.4928    0.0593 C   0  0  0  0  0  0  0  0  0  0  0  0
   -4.0812    0.1655    0.2690 C   0  0  0  0  0  0  0  0  0  0  0  0
   -3.6576    2.0638   -1.3352 C   0  0  0  0  0  0  0  0  0  0  0  0
   -3.7605    2.5118    1.1345 C   0  0  0  0  0  0  0  0  0  0  0  0
   -1.1945    0.5190   -0.7176 C   0  0  0  0  0  0  0  0  0  0  0  0
   -5.3048   -0.0575   -0.3625 C   0  0  0  0  0  0  0  0  0  0  0  0
   -3.5312   -0.8179    1.0913 C   0  0  0  0  0  0  0  0  0  0  0  0
    0.2696    0.4427   -0.4780 C   0  0  0  0  0  0  0  0  0  0  0  0
   -5.9784   -1.2641   -0.1720 C   0  0  0  0  0  0  0  0  0  0  0  0
   -4.2048   -2.0245    1.2819 C   0  0  0  0  0  0  0  0  0  0  0  0
    0.9808   -0.6951   -0.8588 C   0  0  0  0  0  0  0  0  0  0  0  0
    3.0199    0.3019   -0.0308 C   0  0  0  0  0  0  0  0  0  0  0  0
    0.9336    1.5103    0.1267 C   0  0  0  0  0  0  0  0  0  0  0  0
    2.3559   -0.7657   -0.6353 C   0  0  0  0  0  0  0  0  0  0  0  0
   -5.4282   -2.2476    0.6501 C   0  0  0  0  0  0  0  0  0  0  0  0
    2.3086    1.4397    0.3504 C   0  0  0  0  0  0  0  0  0  0  0  0
    4.4371    0.2508    0.2075 C   0  0  0  0  0  0  0  0  0  0  0  0
    5.0148    0.3444    1.4502 C   0  0  0  0  0  0  0  0  0  0  0  0
    5.5238    0.1054   -0.6756 C   0  0  0  0  0  0  0  0  0  0  0  0
    3.1310   -2.9376   -0.0547 C   0  0  0  0  0  0  0  0  0  0  0  0
   -4.6697    2.4827   -1.3868 H   0  0  0  0  0  0  0  0  0  0  0  0
   -3.5667    1.3287   -2.1420 H   0  0  0  0  0  0  0  0  0  0  0  0
   -2.9783    2.8915   -1.5777 H   0  0  0  0  0  0  0  0  0  0  0  0
   -3.5129    2.1541    2.1414 H   0  0  0  0  0  0  0  0  0  0  0  0
   -4.8403    2.6988    1.1094 H   0  0  0  0  0  0  0  0  0  0  0  0
   -3.2493    3.4715    0.9936 H   0  0  0  0  0  0  0  0  0  0  0  0
   -1.4255    1.7671    0.9369 H   0  0  0  0  0  0  0  0  0  0  0  0
   -5.7822    0.6851   -0.9924 H   0  0  0  0  0  0  0  0  0  0  0  0
   -2.5907   -0.6665    1.6134 H   0  0  0  0  0  0  0  0  0  0  0  0
    0.4734   -1.5351   -1.3275 H   0  0  0  0  0  0  0  0  0  0  0  0
   -6.9337   -1.4364   -0.6592 H   0  0  0  0  0  0  0  0  0  0  0  0
   -3.7793   -2.7885    1.9260 H   0  0  0  0  0  0  0  0  0  0  0  0
    0.4257    2.4282    0.4073 H   0  0  0  0  0  0  0  0  0  0  0  0
    2.8085    2.2881    0.8124 H   0  0  0  0  0  0  0  0  0  0  0  0
   -5.9537   -3.1862    0.8003 H   0  0  0  0  0  0  0  0  0  0  0  0
    4.6057    0.4634    2.4441 H   0  0  0  0  0  0  0  0  0  0  0  0
    5.5102   -0.0007   -1.7513 H   0  0  0  0  0  0  0  0  0  0  0  0
    7.0983    0.2828    1.9358 H   0  0  0  0  0  0  0  0  0  0  0  0
    3.7333   -3.7409   -0.4879 H   0  0  0  0  0  0  0  0  0  0  0  0
    2.1395   -3.3351    0.1843 H   0  0  0  0  0  0  0  0  0  0  0  0
    3.6226   -2.5871    0.8579 H   0  0  0  0  0  0  0  0  0  0  0  0
  1 10  2  0  0  0  0
  2 19  1  0  0  0  0
  2 25  1  0  0  0  0
  3  6  1  0  0  0  0
  3 10  1  0  0  0  0
  3 32  1  0  0  0  0
  4  5  1  0  0  0  0
  4 23  1  0  0  0  0
  4 43  1  0  0  0  0
  5 24  2  0  0  0  0
  6  7  1  0  0  0  0
  6  8  1  0  0  0  0
  6  9  1  0  0  0  0
  7 11  2  0  0  0  0
  7 12  1  0  0  0  0
  8 26  1  0  0  0  0
  8 27  1  0  0  0  0
  8 28  1  0  0  0  0
  9 29  1  0  0  0  0
  9 30  1  0  0  0  0
  9 31  1  0  0  0  0
 10 13  1  0  0  0  0
 11 14  1  0  0  0  0
 11 33  1  0  0  0  0
 12 15  2  0  0  0  0
 12 34  1  0  0  0  0
 13 16  2  0  0  0  0
 13 18  1  0  0  0  0
 14 20  2  0  0  0  0
 14 36  1  0  0  0  0
 15 20  1  0  0  0  0
 15 37  1  0  0  0  0
 16 19  1  0  0  0  0
 16 35  1  0  0  0  0
 17 19  2  0  0  0  0
 17 21  1  0  0  0  0
 17 22  1  0  0  0  0
 18 21  2  0  0  0  0
 18 38  1  0  0  0  0
 20 40  1  0  0  0  0
 21 39  1  0  0  0  0
 22 23  2  0  0  0  0
 22 24  1  0  0  0  0
 23 41  1  0  0  0  0
 24 42  1  0  0  0  0
 25 44  1  0  0  0  0
 25 45  1  0  0  0  0
 25 46  1  0  0  0  0
M  END
> <PUBCHEM_COMPOUND_CID>
90354228

> <PUBCHEM_CONFORMER_RMSD>
0.8

> <PUBCHEM_CONFORMER_DIVERSEORDER>
3
12
1
7
18
10
2
17
19
13
16
4
20
5
15
8
11
6
14
9
21

> <PUBCHEM_MMFF94_PARTIAL_CHARGES>
35
1 -0.57
10 0.54
11 -0.15
12 -0.15
13 0.09
14 -0.15
15 -0.15
16 -0.15
17 0.05
18 -0.15
19 0.08
2 -0.36
20 -0.15
21 -0.15
22 -0.05
23 -0.3
24 0.14
25 0.28
3 -0.73
32 0.37
33 0.15
34 0.15
35 0.15
36 0.15
37 0.15
38 0.15
39 0.15
4 0.3
40 0.15
41 0.15
42 0.15
43 0.27
5 -0.71
6 0.44
7 -0.14

> <PUBCHEM_EFFECTIVE_ROTOR_COUNT>
6

> <PUBCHEM_PHARMACOPHORE_FEATURES>
9
1 1 acceptor
1 2 acceptor
1 3 donor
1 4 donor
1 5 acceptor
3 6 8 9 hydrophobe
5 4 5 22 23 24 rings
6 13 16 17 18 19 21 rings
6 7 11 12 14 15 20 rings

> <PUBCHEM_HEAVY_ATOM_COUNT>
25

> <PUBCHEM_ATOM_DEF_STEREO_COUNT>
0

> <PUBCHEM_ATOM_UDEF_STEREO_COUNT>
0

> <PUBCHEM_BOND_DEF_STEREO_COUNT>
0

> <PUBCHEM_BOND_UDEF_STEREO_COUNT>
0

> <PUBCHEM_ISOTOPIC_ATOM_COUNT>
0

> <PUBCHEM_COMPONENT_COUNT>
1

> <PUBCHEM_CACTVS_TAUTO_COUNT>
7

> <PUBCHEM_CONFORMER_ID>
0562B23400000003

> <PUBCHEM_MMFF94_ENERGY>
85.3152

> <PUBCHEM_FEATURE_SELFOVERLAP>
45.671

> <PUBCHEM_SHAPE_FINGERPRINT>
10 15 18271235127933585240
10165383 225 8214155058223354543
11315181 36 18187085078890274553
11646440 116 17489869358512867608
11963148 33 18334850649987478114
12107183 9 17693101764513528505
12236239 1 15719390637741482173
12596602 18 16774080695496885163
12730499 353 17703794713416714438
12892183 10 18201440237850533021
13073987 5 18200595795919756369
13583140 156 18341606006309172461
13631057 29 18335420209921051771
14251752 14 10519717674132745700
14849402 71 16056026008721659680
14910302 57 17895756167228520455
14955137 171 18343024406627254652
15183329 4 7997700791450960767
15188451 53 18187358874428348379
15510800 12 18042136499935449867
17844677 252 18060142046116141384
17857418 61 17458339745330196250
18927931 339 18334581269832792703
19489759 90 18259420827926627641
21033648 29 17418081092677566889
21623969 137 18273216400346888798
21756936 100 13254802334965136127
21781051 124 18341059554148470670
22224240 67 18271518797654388626
2303208 19 17845948355088499540
23198884 109 12612744723370241999
23402539 116 15430034344429290348
23522609 53 17605299327486751556
23559900 14 18335415794826611481
23569914 152 12473355197062273770
26918003 58 18409166636665553037
29717793 49 14418130699922893062
3009799 131 11241965989109785294
32027 91 17757261587967944002
4073 2 18410017602218849921
4325135 7 17748828527372051766
465052 167 18187643622618343162
5104073 3 18200879448281499203
531348 171 16154250738138789155
5718773 13 18121499313911286787
59755656 215 18410013247507705094
7495541 125 18040715905047139164
90127 26 17703236100409564556

> <PUBCHEM_SHAPE_MULTIPOLES>
487.81
15.91
2.41
1.23
7.92
0.72
-0.06
3.57
-3.26
-2.43
-0.26
-0.07
-0.06
1.2

> <PUBCHEM_SHAPE_SELFOVERLAP>
1060.554

> <PUBCHEM_SHAPE_VOLUME>
267.7

> <PUBCHEM_COORDINATE_TYPE>
2
5
10

$$$$
118662883
  -OEChem-05102415133D

 47 49  0     1  0  0  0  0  0999 V2000
    3.3079   -1.3612   -1.5757 O   0  0  0  0  0  0  0  0  0  0  0  0
   -1.3997    0.4405   -2.0914 O   0  0  0  0  0  0  0  0  0  0  0  0
   -3.0288    3.5705    0.8158 O   0  0  0  0  0  0  0  0  0  0  0  0
   -1.8857    1.1933    0.0478 N   0  0  0  0  0  0  0  0  0  0  0  0
   -4.5825    3.2835   -0.8516 N   0  0  0  0  0  0  0  0  0  0  0  0
    6.2661   -0.1128    1.6654 N   0  0  0  0  0  0  0  0  0  0  0  0
    6.7513    0.2078    0.4537 N   0  0  0  0  0  0  0  0  0  0  0  0
   -3.3041    1.3565   -0.1478 C   0  0  1  0  0  0  0  0  0  0  0  0
   -4.1254    0.5242    0.8434 C   0  0  0  0  0  0  0  0  0  0  0  0
   -3.8396   -0.9543    0.7417 C   0  0  0  0  0  0  0  0  0  0  0  0
    0.3921    0.6025   -0.5875 C   0  0  0  0  0  0  0  0  0  0  0  0
   -3.6119    2.8373    0.0207 C   0  0  0  0  0  0  0  0  0  0  0  0
   -1.0402    0.7419   -0.9564 C   0  0  0  0  0  0  0  0  0  0  0  0
    3.0826    0.3439    0.1034 C   0  0  0  0  0  0  0  0  0  0  0  0
    2.5430   -0.4499   -0.9088 C   0  0  0  0  0  0  0  0  0  0  0  0
    1.1977   -0.3206   -1.2541 C   0  0  0  0  0  0  0  0  0  0  0  0
   -2.8298   -1.5245    1.5170 C   0  0  0  0  0  0  0  0  0  0  0  0
   -4.5854   -1.7506   -0.1275 C   0  0  0  0  0  0  0  0  0  0  0  0
    0.9316    1.3965    0.4248 C   0  0  0  0  0  0  0  0  0  0  0  0
    2.2768    1.2670    0.7703 C   0  0  0  0  0  0  0  0  0  0  0  0
    4.4673    0.2281    0.4742 C   0  0  0  0  0  0  0  0  0  0  0  0
   -2.5658   -2.8910    1.4231 C   0  0  0  0  0  0  0  0  0  0  0  0
   -4.3214   -3.1171   -0.2216 C   0  0  0  0  0  0  0  0  0  0  0  0
   -3.3114   -3.6872    0.5536 C   0  0  0  0  0  0  0  0  0  0  0  0
    4.9038   -0.1150    1.7306 C   0  0  0  0  0  0  0  0  0  0  0  0
    5.6478    0.4149   -0.2696 C   0  0  0  0  0  0  0  0  0  0  0  0
    2.6637   -2.1241   -2.5934 C   0  0  0  0  0  0  0  0  0  0  0  0
   -3.5586    1.0531   -1.1707 H   0  0  0  0  0  0  0  0  0  0  0  0
   -5.1974    0.7016    0.6847 H   0  0  0  0  0  0  0  0  0  0  0  0
   -3.9303    0.8569    1.8724 H   0  0  0  0  0  0  0  0  0  0  0  0
   -1.5273    1.3958    0.9748 H   0  0  0  0  0  0  0  0  0  0  0  0
    0.7239   -0.9158   -2.0268 H   0  0  0  0  0  0  0  0  0  0  0  0
   -2.2423   -0.9164    2.1998 H   0  0  0  0  0  0  0  0  0  0  0  0
   -5.3731   -1.3172   -0.7381 H   0  0  0  0  0  0  0  0  0  0  0  0
    0.3497    2.1508    0.9457 H   0  0  0  0  0  0  0  0  0  0  0  0
    2.6801    1.9041    1.5543 H   0  0  0  0  0  0  0  0  0  0  0  0
   -1.7795   -3.3349    2.0266 H   0  0  0  0  0  0  0  0  0  0  0  0
   -4.9014   -3.7371   -0.8988 H   0  0  0  0  0  0  0  0  0  0  0  0
   -3.1055   -4.7511    0.4802 H   0  0  0  0  0  0  0  0  0  0  0  0
   -5.0540    2.6678   -1.5064 H   0  0  0  0  0  0  0  0  0  0  0  0
   -4.8713    4.2561   -0.8547 H   0  0  0  0  0  0  0  0  0  0  0  0
    4.3856   -0.3575    2.6482 H   0  0  0  0  0  0  0  0  0  0  0  0
    5.7543    0.6940   -1.3086 H   0  0  0  0  0  0  0  0  0  0  0  0
    6.9241   -0.3199    2.4063 H   0  0  0  0  0  0  0  0  0  0  0  0
    2.3098   -1.4900   -3.4135 H   0  0  0  0  0  0  0  0  0  0  0  0
    1.8736   -2.7623   -2.1830 H   0  0  0  0  0  0  0  0  0  0  0  0
    3.4193   -2.7937   -3.0179 H   0  0  0  0  0  0  0  0  0  0  0  0
  1 15  1  0  0  0  0
  1 27  1  0  0  0  0
  2 13  2  0  0  0  0
  3 12  2  0  0  0  0
  4  8  1  0  0  0  0
  4 13  1  0  0  0  0
  4 31  1  0  0  0  0
  5 12  1  0  0  0  0
  5 40  1  0  0  0  0
  5 41  1  0  0  0  0
  6  7  1  0  0  0  0
  6 25  1  0  0  0  0
  6 44  1  0  0  0  0
  7 26  2  0  0  0  0
  8  9  1  0  0  0  0
  8 12  1  0  0  0  0
  8 28  1  0  0  0  0
  9 10  1  0  0  0  0
  9 29  1  0  0  0  0
  9 30  1  0  0  0  0
 10 17  2  0  0  0  0
 10 18  1  0  0  0  0
 11 13  1  0  0  0  0
 11 16  2  0  0  0  0
 11 19  1  0  0  0  0
 14 15  2  0  0  0  0
 14 20  1  0  0  0  0
 14 21  1  0  0  0  0
 15 16  1  0  0  0  0
 16 32  1  0  0  0  0
 17 22  1  0  0  0  0
 17 33  1  0  0  0  0
 18 23  2  0  0  0  0
 18 34  1  0  0  0  0
 19 20  2  0  0  0  0
 19 35  1  0  0  0  0
 20 36  1  0  0  0  0
 21 25  2  0  0  0  0
 21 26  1  0  0  0  0
 22 24  2  0  0  0  0
 22 37  1  0  0  0  0
 23 24  1  0  0  0  0
 23 38  1  0  0  0  0
 24 39  1  0  0  0  0
 25 42  1  0  0  0  0
 26 43  1  0  0  0  0
 27 45  1  0  0  0  0
 27 46  1  0  0  0  0
 27 47  1  0  0  0  0
M  END
> <PUBCHEM_COMPOUND_CID>
118662883

> <PUBCHEM_CONFORMER_RMSD>
1

> <PUBCHEM_CONFORMER_DIVERSEORDER>
2
18
38
35
4
23
10
25
30
13
40
7
11
8
29
17
5
32
16
28
37
22
3
41
43
27
42
19
21
36
20
14
34
33
6
39
1
26
24
12
9
31
15

> <PUBCHEM_MMFF94_PARTIAL_CHARGES>
41
1 -0.36
10 -0.14
11 0.09
12 0.57
13 0.54
14 0.05
15 0.08
16 -0.15
17 -0.15
18 -0.15
19 -0.15
2 -0.57
20 -0.15
21 -0.05
22 -0.15
23 -0.15
24 -0.15
25 -0.3
26 0.14
27 0.28
3 -0.57
31 0.37
32 0.15
33 0.15
34 0.15
35 0.15
36 0.15
37 0.15
38 0.15
39 0.15
4 -0.73
40 0.37
41 0.37
42 0.15
43 0.15
44 0.27
5 -0.8
6 0.3
7 -0.71
8 0.36
9 0.14

> <PUBCHEM_EFFECTIVE_ROTOR_COUNT>
8

> <PUBCHEM_PHARMACOPHORE_FEATURES>
10
1 1 acceptor
1 2 acceptor
1 3 acceptor
1 4 donor
1 5 donor
1 6 donor
1 7 acceptor
5 6 7 21 25 26 rings
6 10 17 18 22 23 24 rings
6 11 14 15 16 19 20 rings

> <PUBCHEM_HEAVY_ATOM_COUNT>
27

> <PUBCHEM_ATOM_DEF_STEREO_COUNT>
1

> <PUBCHEM_ATOM_UDEF_STEREO_COUNT>
0

> <PUBCHEM_BOND_DEF_STEREO_COUNT>
0

> <PUBCHEM_BOND_UDEF_STEREO_COUNT>
0

> <PUBCHEM_ISOTOPIC_ATOM_COUNT>
0

> <PUBCHEM_COMPONENT_COUNT>
1

> <PUBCHEM_CACTVS_TAUTO_COUNT>
371

> <PUBCHEM_CONFORMER_ID>
0712A6E300000002

> <PUBCHEM_MMFF94_ENERGY>
80.5014

> <PUBCHEM_FEATURE_SELFOVERLAP>
50.748

> <PUBCHEM_SHAPE_FINGERPRINT>
11370993 144 17702405986711480339
11552529 35 18334570282588921121
12166972 35 17097208574640886483
12293681 4 18341049622986739752
12523318 42 18409443704588989697
12616971 3 16009042648152761156
12633257 1 18270417090928916769
12788726 201 18117293638203973075
13004483 165 18194686101931793331
13583140 156 17846495937306173821
14068700 675 18189048867039927231
14081887 123 18411706495466889939
14844126 61 18334577979882680371
15183329 4 12607414282482981760
15250474 111 18041270037316573402
17857418 61 17749381603185285610
17913733 40 17203611493357933622
17980427 26 17547275715371865365
20554085 129 18122322611723054361
21033648 29 17418079997661431432
21781051 124 18131081442136269822
22182313 1 17845949463142608798
23522609 53 17605014558618089492
23559900 14 18124331423487083910
23569914 152 13195339577788316626
23569943 247 15410064933501179124
255183 313 18339658750559423905
4073 2 18340488876962619430
4403749 210 18199736085654653208
469060 322 17488165179761298031
508706 21 18411709798101964519
5104073 3 17916308242785259578
5364581 5 18268705189885022184
5924683 9 18335980943439038323
59755656 520 18115576068435536301
602551 16 18260834808311685018
7495541 125 18261670476331261496

> <PUBCHEM_SHAPE_MULTIPOLES>
518.12
13.61
3.66
1.73
15.49
0.08
-0.57
-1.72
4.23
-8.2
0.1
1.41
-0.82
1.71

> <PUBCHEM_SHAPE_SELFOVERLAP>
1121.087

> <PUBCHEM_SHAPE_VOLUME>
283.5

> <PUBCHEM_COORDINATE_TYPE>
2
5
10

$$$$
118662943
  -OEChem-05102415133D

 57 60  0     1  0  0  0  0  0999 V2000
   -0.4975   -2.6306    0.8449 O   0  0  0  0  0  0  0  0  0  0  0  0
    3.3892    1.5141   -0.7561 O   0  0  0  0  0  0  0  0  0  0  0  0
   -4.5708   -0.4245   -0.2549 N   0  0  0  0  0  0  0  0  0  0  0  0
   -7.3505   -1.0268    0.3029 N   0  0  0  0  0  0  0  0  0  0  0  0
   -0.9457   -1.0684   -0.8100 N   0  0  0  0  0  0  0  0  0  0  0  0
    7.4627    0.0143    0.6461 N   0  0  0  0  0  0  0  0  0  0  0  0
    7.5091    0.3092   -0.6643 N   0  0  0  0  0  0  0  0  0  0  0  0
   -3.1491   -0.4000    0.0828 C   0  0  1  0  0  0  0  0  0  0  0  0
   -5.0739   -1.8036   -0.2968 C   0  0  0  0  0  0  0  0  0  0  0  0
   -5.3475    0.3799    0.6972 C   0  0  0  0  0  0  0  0  0  0  0  0
   -6.5653   -1.8262   -0.6404 C   0  0  0  0  0  0  0  0  0  0  0  0
   -6.8374    0.3443    0.3479 C   0  0  0  0  0  0  0  0  0  0  0  0
   -2.3646   -1.3007   -0.8841 C   0  0  0  0  0  0  0  0  0  0  0  0
   -2.6303    1.0269    0.1257 C   0  0  0  0  0  0  0  0  0  0  0  0
   -1.6371    1.3807    1.0390 C   0  0  0  0  0  0  0  0  0  0  0  0
   -3.1473    1.9835   -0.7482 C   0  0  0  0  0  0  0  0  0  0  0  0
   -0.1180   -1.7637    0.0620 C   0  0  0  0  0  0  0  0  0  0  0  0
   -1.1606    2.6912    1.0784 C   0  0  0  0  0  0  0  0  0  0  0  0
   -2.6708    3.2940   -0.7087 C   0  0  0  0  0  0  0  0  0  0  0  0
   -1.6773    3.6477    0.2045 C   0  0  0  0  0  0  0  0  0  0  0  0
    1.3190   -1.3882    0.0356 C   0  0  0  0  0  0  0  0  0  0  0  0
    1.6975   -0.1023   -0.3505 C   0  0  0  0  0  0  0  0  0  0  0  0
    2.2901   -2.3215    0.3989 C   0  0  0  0  0  0  0  0  0  0  0  0
    4.0179   -0.6828   -0.0100 C   0  0  0  0  0  0  0  0  0  0  0  0
    3.0468    0.2505   -0.3734 C   0  0  0  0  0  0  0  0  0  0  0  0
    3.6395   -1.9689    0.3758 C   0  0  0  0  0  0  0  0  0  0  0  0
    5.4144   -0.3397   -0.0249 C   0  0  0  0  0  0  0  0  0  0  0  0
    6.2308   -0.3797    1.0791 C   0  0  0  0  0  0  0  0  0  0  0  0
    6.2550    0.0912   -1.0688 C   0  0  0  0  0  0  0  0  0  0  0  0
    3.4718    2.5000    0.2703 C   0  0  0  0  0  0  0  0  0  0  0  0
   -3.0192   -0.8164    1.0938 H   0  0  0  0  0  0  0  0  0  0  0  0
   -4.5885   -2.3896   -1.0834 H   0  0  0  0  0  0  0  0  0  0  0  0
   -4.9058   -2.3167    0.6596 H   0  0  0  0  0  0  0  0  0  0  0  0
   -5.2121   -0.0025    1.7191 H   0  0  0  0  0  0  0  0  0  0  0  0
   -5.0713    1.4366    0.7241 H   0  0  0  0  0  0  0  0  0  0  0  0
   -6.7258   -1.4611   -1.6629 H   0  0  0  0  0  0  0  0  0  0  0  0
   -6.9264   -2.8602   -0.6101 H   0  0  0  0  0  0  0  0  0  0  0  0
   -7.3983    0.9021    1.1060 H   0  0  0  0  0  0  0  0  0  0  0  0
   -7.0145    0.8431   -0.6135 H   0  0  0  0  0  0  0  0  0  0  0  0
   -2.5372   -2.3633   -0.6831 H   0  0  0  0  0  0  0  0  0  0  0  0
   -2.6454   -1.0961   -1.9247 H   0  0  0  0  0  0  0  0  0  0  0  0
   -8.3269   -1.0160    0.0103 H   0  0  0  0  0  0  0  0  0  0  0  0
   -0.5575   -0.4009   -1.4680 H   0  0  0  0  0  0  0  0  0  0  0  0
   -1.2277    0.6483    1.7295 H   0  0  0  0  0  0  0  0  0  0  0  0
   -3.8988    1.7362   -1.4931 H   0  0  0  0  0  0  0  0  0  0  0  0
   -0.3866    2.9663    1.7889 H   0  0  0  0  0  0  0  0  0  0  0  0
   -3.0678    4.0374   -1.3938 H   0  0  0  0  0  0  0  0  0  0  0  0
   -1.3048    4.6675    0.2338 H   0  0  0  0  0  0  0  0  0  0  0  0
    0.9676    0.6568   -0.6160 H   0  0  0  0  0  0  0  0  0  0  0  0
    2.0150   -3.3296    0.6976 H   0  0  0  0  0  0  0  0  0  0  0  0
    4.3802   -2.7137    0.6579 H   0  0  0  0  0  0  0  0  0  0  0  0
    6.0566   -0.6439    2.1131 H   0  0  0  0  0  0  0  0  0  0  0  0
    6.0100    0.2562   -2.1087 H   0  0  0  0  0  0  0  0  0  0  0  0
    8.3126    0.1045    1.1886 H   0  0  0  0  0  0  0  0  0  0  0  0
    3.8037    3.4382   -0.1828 H   0  0  0  0  0  0  0  0  0  0  0  0
    4.1942    2.2095    1.0391 H   0  0  0  0  0  0  0  0  0  0  0  0
    2.4883    2.6605    0.7234 H   0  0  0  0  0  0  0  0  0  0  0  0
  1 17  2  0  0  0  0
  2 25  1  0  0  0  0
  2 30  1  0  0  0  0
  3  8  1  0  0  0  0
  3  9  1  0  0  0  0
  3 10  1  0  0  0  0
  4 11  1  0  0  0  0
  4 12  1  0  0  0  0
  4 42  1  0  0  0  0
  5 13  1  0  0  0  0
  5 17  1  0  0  0  0
  5 43  1  0  0  0  0
  6  7  1  0  0  0  0
  6 28  1  0  0  0  0
  6 54  1  0  0  0  0
  7 29  2  0  0  0  0
  8 13  1  0  0  0  0
  8 14  1  0  0  0  0
  8 31  1  0  0  0  0
  9 11  1  0  0  0  0
  9 32  1  0  0  0  0
  9 33  1  0  0  0  0
 10 12  1  0  0  0  0
 10 34  1  0  0  0  0
 10 35  1  0  0  0  0
 11 36  1  0  0  0  0
 11 37  1  0  0  0  0
 12 38  1  0  0  0  0
 12 39  1  0  0  0  0
 13 40  1  0  0  0  0
 13 41  1  0  0  0  0
 14 15  2  0  0  0  0
 14 16  1  0  0  0  0
 15 18  1  0  0  0  0
 15 44  1  0  0  0  0
 16 19  2  0  0  0  0
 16 45  1  0  0  0  0
 17 21  1  0  0  0  0
 18 20  2  0  0  0  0
 18 46  1  0  0  0  0
 19 20  1  0  0  0  0
 19 47  1  0  0  0  0
 20 48  1  0  0  0  0
 21 22  2  0  0  0  0
 21 23  1  0  0  0  0
 22 25  1  0  0  0  0
 22 49  1  0  0  0  0
 23 26  2  0  0  0  0
 23 50  1  0  0  0  0
 24 25  2  0  0  0  0
 24 26  1  0  0  0  0
 24 27  1  0  0  0  0
 26 51  1  0  0  0  0
 27 28  2  0  0  0  0
 27 29  1  0  0  0  0
 28 52  1  0  0  0  0
 29 53  1  0  0  0  0
 30 55  1  0  0  0  0
 30 56  1  0  0  0  0
 30 57  1  0  0  0  0
M  END
> <PUBCHEM_COMPOUND_CID>
118662943

> <PUBCHEM_CONFORMER_RMSD>
1

> <PUBCHEM_CONFORMER_DIVERSEORDER>
1
64
52
69
36
50
27
59
17
73
63
45
78
6
19
34
75
82
24
58
51
55
60
70
72
33
35
5
79
83
39
62
47
15
46
28
54
65
18
67
38
49
77
61
16
81
9
26
74
40
68
44
20
32
14
30
80
48
37
3
66
23
57
71
31
25
8
13
76
21
12
53
43
7
22
56
29
42
2
10
4
41
11

> <PUBCHEM_MMFF94_PARTIAL_CHARGES>
43
1 -0.57
10 0.27
11 0.27
12 0.27
13 0.3
14 -0.14
15 -0.15
16 -0.15
17 0.54
18 -0.15
19 -0.15
2 -0.36
20 -0.15
21 0.09
22 -0.15
23 -0.15
24 0.05
25 0.08
26 -0.15
27 -0.05
28 -0.3
29 0.14
3 -0.81
30 0.28
4 -0.9
42 0.36
43 0.37
44 0.15
45 0.15
46 0.15
47 0.15
48 0.15
49 0.15
5 -0.73
50 0.15
51 0.15
52 0.15
53 0.15
54 0.27
6 0.3
7 -0.71
8 0.41
9 0.27

> <PUBCHEM_EFFECTIVE_ROTOR_COUNT>
9.2

> <PUBCHEM_PHARMACOPHORE_FEATURES>
12
1 1 acceptor
1 2 acceptor
1 3 cation
1 4 cation
1 4 donor
1 5 donor
1 6 donor
1 7 acceptor
5 6 7 27 28 29 rings
6 14 15 16 18 19 20 rings
6 21 22 23 24 25 26 rings
6 3 4 9 10 11 12 rings

> <PUBCHEM_HEAVY_ATOM_COUNT>
30

> <PUBCHEM_ATOM_DEF_STEREO_COUNT>
0

> <PUBCHEM_ATOM_UDEF_STEREO_COUNT>
1

> <PUBCHEM_BOND_DEF_STEREO_COUNT>
0

> <PUBCHEM_BOND_UDEF_STEREO_COUNT>
0

> <PUBCHEM_ISOTOPIC_ATOM_COUNT>
0

> <PUBCHEM_COMPONENT_COUNT>
1

> <PUBCHEM_CACTVS_TAUTO_COUNT>
9

> <PUBCHEM_CONFORMER_ID>
0712A71F00000001

> <PUBCHEM_MMFF94_ENERGY>
86.327

> <PUBCHEM_FEATURE_SELFOVERLAP>
60.899

> <PUBCHEM_SHAPE_FINGERPRINT>
10050765 1 18122626054782009974
10290309 65 18198903617872029159
10670039 82 18411703150008905476
11315181 36 13334742314371403862
11578080 2 17314772020447216805
12107698 1 18334856121389905088
12166972 35 17967533510049540036
12596602 18 17676482805147266330
12788726 201 18335132064796833787
13560911 43 18187078473204446768
13631057 29 18412261722636622297
14068700 675 18409732888974727821
14294032 229 18269845224333966009
14394314 77 18412831253108150177
14466204 15 18410006612394649552
14787075 74 18335421288110849667
14849402 71 18335702810311381020
15419008 47 17775843523872229560
16087824 20 18339923702971227397
17492 89 18195244417088553159
18336668 15 18187366541272182373
18608769 82 18413105073872123786
19611394 137 18044387256130098011
20028762 73 18343866632228124470
20721686 146 15768948844801677089
20721686 56 18337390572890492721
21049683 271 18335140942952949125
21267235 1 18413112770506311198
221357 26 18343023289771623318
22311459 1 18409448103026273650
23569917 315 18335987463791354890
283562 15 18337110064856293627
3004659 81 18334010622549072720
340366 18 11095870588955782827
34797466 226 17346600794743560140
350125 39 18410855447422841828
392239 28 18410300202951914793
4197921 191 18260832592762415156
4258327 124 16661508327538289742
4325135 7 18412545414359685703
469060 322 18339092505548337593
497634 4 17703797968337020291
5776283 40 18265622172872586296
59755656 520 17676764365923855907
6371009 1 18333733524608234372

> <PUBCHEM_SHAPE_MULTIPOLES>
580.74
18.64
3.32
0.96
7.18
2.39
0.02
-4.17
-0.19
-2.58
0.15
0.24
0.14
-0.66

> <PUBCHEM_SHAPE_SELFOVERLAP>
1253.046

> <PUBCHEM_SHAPE_VOLUME>
320.1

> <PUBCHEM_COORDINATE_TYPE>
2
5
10

$$$$
118662949
  -OEChem-05102415133D

 47 49  0     0  0  0  0  0  0999 V2000
    2.9232    0.4426   -1.7300 O   0  0  0  0  0  0  0  0  0  0  0  0
   -4.0685   -1.7370   -0.3776 O   0  0  0  0  0  0  0  0  0  0  0  0
    0.8485   -2.9726   -0.6172 O   0  0  0  0  0  0  0  0  0  0  0  0
    1.7946   -1.5069    0.9104 N   0  0  0  0  0  0  0  0  0  0  0  0
   -5.5640    2.5706   -0.2240 N   0  0  0  0  0  0  0  0  0  0  0  0
   -6.1502    1.8468    0.7449 N   0  0  0  0  0  0  0  0  0  0  0  0
    4.0665   -1.5873   -0.0617 C   0  0  0  0  0  0  0  0  0  0  0  0
    3.0909   -2.1431    0.9727 C   0  0  0  0  0  0  0  0  0  0  0  0
    4.3414   -0.1147    0.1202 C   0  0  0  0  0  0  0  0  0  0  0  0
   -0.4929   -1.2039    0.1377 C   0  0  0  0  0  0  0  0  0  0  0  0
   -2.8652    0.2633    0.1958 C   0  0  0  0  0  0  0  0  0  0  0  0
    3.7559    0.8294   -0.7232 C   0  0  0  0  0  0  0  0  0  0  0  0
    0.7437   -1.9685    0.1093 C   0  0  0  0  0  0  0  0  0  0  0  0
   -2.8944   -1.0983   -0.1059 C   0  0  0  0  0  0  0  0  0  0  0  0
   -1.7083   -1.8319   -0.1350 C   0  0  0  0  0  0  0  0  0  0  0  0
    5.1937    0.2985    1.1444 C   0  0  0  0  0  0  0  0  0  0  0  0
   -0.4637    0.1578    0.4394 C   0  0  0  0  0  0  0  0  0  0  0  0
   -1.6498    0.8913    0.4682 C   0  0  0  0  0  0  0  0  0  0  0  0
   -4.0764    1.0378    0.2329 C   0  0  0  0  0  0  0  0  0  0  0  0
    4.0224    2.1866   -0.5427 C   0  0  0  0  0  0  0  0  0  0  0  0
    5.4600    1.6558    1.3252 C   0  0  0  0  0  0  0  0  0  0  0  0
    4.8746    2.5998    0.4816 C   0  0  0  0  0  0  0  0  0  0  0  0
   -4.3206    2.1273   -0.5673 C   0  0  0  0  0  0  0  0  0  0  0  0
   -5.2367    0.9121    1.0200 C   0  0  0  0  0  0  0  0  0  0  0  0
   -3.9932   -3.1294   -0.6743 C   0  0  0  0  0  0  0  0  0  0  0  0
    2.3685    1.4740   -2.5440 C   0  0  0  0  0  0  0  0  0  0  0  0
    5.0170   -2.1318    0.0105 H   0  0  0  0  0  0  0  0  0  0  0  0
    3.6922   -1.7905   -1.0723 H   0  0  0  0  0  0  0  0  0  0  0  0
    2.9653   -3.2201    0.8161 H   0  0  0  0  0  0  0  0  0  0  0  0
    3.4707   -1.9969    1.9898 H   0  0  0  0  0  0  0  0  0  0  0  0
    1.6550   -0.7113    1.5241 H   0  0  0  0  0  0  0  0  0  0  0  0
   -1.6726   -2.8929   -0.3564 H   0  0  0  0  0  0  0  0  0  0  0  0
    5.6572   -0.4271    1.8077 H   0  0  0  0  0  0  0  0  0  0  0  0
    0.4627    0.6926    0.6273 H   0  0  0  0  0  0  0  0  0  0  0  0
   -1.6038    1.9523    0.7034 H   0  0  0  0  0  0  0  0  0  0  0  0
    3.6046    2.9760   -1.1578 H   0  0  0  0  0  0  0  0  0  0  0  0
    6.1236    1.9776    2.1226 H   0  0  0  0  0  0  0  0  0  0  0  0
    5.0830    3.6564    0.6232 H   0  0  0  0  0  0  0  0  0  0  0  0
   -3.7405    2.6204   -1.3352 H   0  0  0  0  0  0  0  0  0  0  0  0
   -5.4584    0.1802    1.7841 H   0  0  0  0  0  0  0  0  0  0  0  0
   -6.0714    3.3575   -0.6089 H   0  0  0  0  0  0  0  0  0  0  0  0
   -5.0159   -3.4716   -0.8653 H   0  0  0  0  0  0  0  0  0  0  0  0
   -3.6234   -3.7067    0.1800 H   0  0  0  0  0  0  0  0  0  0  0  0
   -3.4225   -3.3190   -1.5898 H   0  0  0  0  0  0  0  0  0  0  0  0
    1.7316    0.9870   -3.2899 H   0  0  0  0  0  0  0  0  0  0  0  0
    1.7226    2.1422   -1.9641 H   0  0  0  0  0  0  0  0  0  0  0  0
    3.1449    2.0160   -3.0946 H   0  0  0  0  0  0  0  0  0  0  0  0
  1 12  1  0  0  0  0
  1 26  1  0  0  0  0
  2 14  1  0  0  0  0
  2 25  1  0  0  0  0
  3 13  2  0  0  0  0
  4  8  1  0  0  0  0
  4 13  1  0  0  0  0
  4 31  1  0  0  0  0
  5  6  1  0  0  0  0
  5 23  1  0  0  0  0
  5 41  1  0  0  0  0
  6 24  2  0  0  0  0
  7  8  1  0  0  0  0
  7  9  1  0  0  0  0
  7 27  1  0  0  0  0
  7 28  1  0  0  0  0
  8 29  1  0  0  0  0
  8 30  1  0  0  0  0
  9 12  1  0  0  0  0
  9 16  2  0  0  0  0
 10 13  1  0  0  0  0
 10 15  2  0  0  0  0
 10 17  1  0  0  0  0
 11 14  2  0  0  0  0
 11 18  1  0  0  0  0
 11 19  1  0  0  0  0
 12 20  2  0  0  0  0
 14 15  1  0  0  0  0
 15 32  1  0  0  0  0
 16 21  1  0  0  0  0
 16 33  1  0  0  0  0
 17 18  2  0  0  0  0
 17 34  1  0  0  0  0
 18 35  1  0  0  0  0
 19 23  2  0  0  0  0
 19 24  1  0  0  0  0
 20 22  1  0  0  0  0
 20 36  1  0  0  0  0
 21 22  2  0  0  0  0
 21 37  1  0  0  0  0
 22 38  1  0  0  0  0
 23 39  1  0  0  0  0
 24 40  1  0  0  0  0
 25 42  1  0  0  0  0
 25 43  1  0  0  0  0
 25 44  1  0  0  0  0
 26 45  1  0  0  0  0
 26 46  1  0  0  0  0
 26 47  1  0  0  0  0
M  END
> <PUBCHEM_COMPOUND_CID>
118662949

> <PUBCHEM_CONFORMER_RMSD>
0.8

> <PUBCHEM_CONFORMER_DIVERSEORDER>
5
54
80
96
135
60
132
92
44
38
20
40
75
148
68
49
57
23
112
102
71
26
66
109
11
12
31
56
69
70
61
21
98
6
36
108
137
94
115
67
149
152
130
139
37
81
78
128
95
9
76
27
140
50
93
41
87
82
19
79
16
72
114
107
51
99
14
52
85
15
7
29
59
34
17
131
138
118
104
58
62
65
145
151
22
125
113
55
150
122
111
53
127
91
18
84
97
25
48
129
73
10
134
28
116
77
42
146
105
103
86
90
153
89
141
123
142
32
1
8
45
154
74
101
110
13
147
144
2
35
46
39
64
126
106
33
88
4
133
136
24
143
121
30
83
117
119
124
43
47
63
120
100
3

> <PUBCHEM_MMFF94_PARTIAL_CHARGES>
37
1 -0.36
10 0.09
11 0.05
12 0.08
13 0.54
14 0.08
15 -0.15
16 -0.15
17 -0.15
18 -0.15
19 -0.05
2 -0.36
20 -0.15
21 -0.15
22 -0.15
23 -0.3
24 0.14
25 0.28
26 0.28
3 -0.57
31 0.37
32 0.15
33 0.15
34 0.15
35 0.15
36 0.15
37 0.15
38 0.15
39 0.15
4 -0.73
40 0.15
41 0.27
5 0.3
6 -0.71
7 0.14
8 0.3
9 -0.14

> <PUBCHEM_EFFECTIVE_ROTOR_COUNT>
8

> <PUBCHEM_PHARMACOPHORE_FEATURES>
9
1 1 acceptor
1 2 acceptor
1 3 acceptor
1 4 donor
1 5 donor
1 6 acceptor
5 5 6 19 23 24 rings
6 10 11 14 15 17 18 rings
6 9 12 16 20 21 22 rings

> <PUBCHEM_HEAVY_ATOM_COUNT>
26

> <PUBCHEM_ATOM_DEF_STEREO_COUNT>
0

> <PUBCHEM_ATOM_UDEF_STEREO_COUNT>
0

> <PUBCHEM_BOND_DEF_STEREO_COUNT>
0

> <PUBCHEM_BOND_UDEF_STEREO_COUNT>
0

> <PUBCHEM_ISOTOPIC_ATOM_COUNT>
0

> <PUBCHEM_COMPONENT_COUNT>
1

> <PUBCHEM_CACTVS_TAUTO_COUNT>
18

> <PUBCHEM_CONFORMER_ID>
0712A72500000005

> <PUBCHEM_MMFF94_ENERGY>
81.2358

> <PUBCHEM_FEATURE_SELFOVERLAP>
45.673

> <PUBCHEM_SHAPE_FINGERPRINT>
10498660 4 18201725058865067842
12107183 9 18264759957660030338
12403259 118 18114185271386955347
12422481 6 17676487203257353853
12616971 3 17821729442069273218
12633257 1 16298386898561128504
12788726 201 17177452135963945954
13617811 41 18121485024280078319
13965767 371 18114445843696729192
144659 39 18131913762756194231
14790565 3 18412545414196175043
15196674 1 18412543232310577618
15324115 91 15626227866848705644
15664445 248 13182437964114184098
17810953 82 18408605829742751792
19377110 9 18188493587698039435
20511986 3 18339065047426339437
20715895 44 18339357444547478232
21033648 29 16660636319900602895
21302155 148 18412266138390159643
21304253 335 18335141964279492004
21859007 373 17242723179199723621
23227448 37 18410291389610432111
23559900 14 18058455296400173742
249057 3 18267867181678208302
3472631 163 18202562890899392684
34797466 226 17632583776926826255
3680242 22 18408604730120452256
474 4 17822017522916954570
5104073 3 18333447638225565634
513532 50 18201166451598434382
7064713 232 18335135427692760212
7237137 82 18130502029034820255
960060 61 14189577425174822216
9981440 41 18335985354170680331

> <PUBCHEM_SHAPE_MULTIPOLES>
502.52
14.36
3.43
1.31
4.19
0.9
-0.62
-9.37
2.86
1.44
-0.33
-1.31
-0.5
-0.99

> <PUBCHEM_SHAPE_SELFOVERLAP>
1085.234

> <PUBCHEM_SHAPE_VOLUME>
277.1

> <PUBCHEM_COORDINATE_TYPE>
2
5
10

$$$$
90355357
  -OEChem-05102415133D

 54 57  0     0  0  0  0  0  0999 V2000
    3.4863   -1.6309   -0.5005 O   0  0  0  0  0  0  0  0  0  0  0  0
   -3.1503   -1.8892   -0.7872 O   0  0  0  0  0  0  0  0  0  0  0  0
   -0.9095    3.3792    0.6844 O   0  0  0  0  0  0  0  0  0  0  0  0
    5.6134   -0.9831    0.1544 N   0  0  0  0  0  0  0  0  0  0  0  0
   -0.1104    2.1181   -1.0871 N   0  0  0  0  0  0  0  0  0  0  0  0
   -7.6411   -1.7045   -0.0042 N   0  0  0  0  0  0  0  0  0  0  0  0
   -7.0729   -2.6197    0.7994 N   0  0  0  0  0  0  0  0  0  0  0  0
    6.2181   -2.2737    0.0396 C   0  0  0  0  0  0  0  0  0  0  0  0
    7.0149   -2.8155    1.2065 C   0  0  0  0  0  0  0  0  0  0  0  0
    5.6797   -3.4119    0.8790 C   0  0  0  0  0  0  0  0  0  0  0  0
    6.7040   -2.6016   -1.3460 C   0  0  0  0  0  0  0  0  0  0  0  0
    4.2710   -0.7613   -0.1302 C   0  0  0  0  0  0  0  0  0  0  0  0
    3.7825    0.6288    0.0573 C   0  0  0  0  0  0  0  0  0  0  0  0
    2.6983    1.0936   -0.6872 C   0  0  0  0  0  0  0  0  0  0  0  0
    4.4087    1.4698    0.9774 C   0  0  0  0  0  0  0  0  0  0  0  0
    2.2401    2.3994   -0.5116 C   0  0  0  0  0  0  0  0  0  0  0  0
    3.9506    2.7756    1.1528 C   0  0  0  0  0  0  0  0  0  0  0  0
    2.8662    3.2403    0.4086 C   0  0  0  0  0  0  0  0  0  0  0  0
    1.0817    2.8971   -1.3081 C   0  0  0  0  0  0  0  0  0  0  0  0
   -1.0188    2.4332   -0.0915 C   0  0  0  0  0  0  0  0  0  0  0  0
   -2.2101    1.5508   -0.0012 C   0  0  0  0  0  0  0  0  0  0  0  0
   -4.4473   -0.1071    0.1720 C   0  0  0  0  0  0  0  0  0  0  0  0
   -3.2522   -0.6008   -0.3516 C   0  0  0  0  0  0  0  0  0  0  0  0
   -2.1337    0.2282   -0.4382 C   0  0  0  0  0  0  0  0  0  0  0  0
   -3.4052    2.0444    0.5224 C   0  0  0  0  0  0  0  0  0  0  0  0
   -4.5238    1.2155    0.6087 C   0  0  0  0  0  0  0  0  0  0  0  0
   -5.6119   -0.9450    0.2719 C   0  0  0  0  0  0  0  0  0  0  0  0
   -6.8082   -0.6809   -0.3491 C   0  0  0  0  0  0  0  0  0  0  0  0
   -5.8334   -2.1504    0.9645 C   0  0  0  0  0  0  0  0  0  0  0  0
   -1.8867   -2.2981   -1.3054 C   0  0  0  0  0  0  0  0  0  0  0  0
    7.8967   -3.4111    1.0023 H   0  0  0  0  0  0  0  0  0  0  0  0
    7.0893   -2.2121    2.1037 H   0  0  0  0  0  0  0  0  0  0  0  0
    5.6633   -4.4081    0.4529 H   0  0  0  0  0  0  0  0  0  0  0  0
    4.8657   -3.2163    1.5675 H   0  0  0  0  0  0  0  0  0  0  0  0
    7.4390   -1.8601   -1.6768 H   0  0  0  0  0  0  0  0  0  0  0  0
    5.8708   -2.6002   -2.0567 H   0  0  0  0  0  0  0  0  0  0  0  0
    7.1799   -3.5873   -1.3927 H   0  0  0  0  0  0  0  0  0  0  0  0
    6.2286   -0.2145    0.4033 H   0  0  0  0  0  0  0  0  0  0  0  0
    2.2126    0.4444   -1.4122 H   0  0  0  0  0  0  0  0  0  0  0  0
    5.2358    1.1379    1.5978 H   0  0  0  0  0  0  0  0  0  0  0  0
    4.4333    3.4285    1.8742 H   0  0  0  0  0  0  0  0  0  0  0  0
    2.5194    4.2593    0.5584 H   0  0  0  0  0  0  0  0  0  0  0  0
    0.8652    3.9482   -1.0844 H   0  0  0  0  0  0  0  0  0  0  0  0
    1.3207    2.8401   -2.3763 H   0  0  0  0  0  0  0  0  0  0  0  0
   -0.2893    1.3649   -1.7420 H   0  0  0  0  0  0  0  0  0  0  0  0
   -1.1791   -0.1358   -0.7949 H   0  0  0  0  0  0  0  0  0  0  0  0
   -3.4854    3.0726    0.8652 H   0  0  0  0  0  0  0  0  0  0  0  0
   -5.4442    1.6199    1.0237 H   0  0  0  0  0  0  0  0  0  0  0  0
   -7.1411    0.1215   -0.9930 H   0  0  0  0  0  0  0  0  0  0  0  0
   -5.1462   -2.7093    1.5843 H   0  0  0  0  0  0  0  0  0  0  0  0
   -8.6055   -1.8410   -0.2803 H   0  0  0  0  0  0  0  0  0  0  0  0
   -1.9917   -3.3436   -1.6143 H   0  0  0  0  0  0  0  0  0  0  0  0
   -1.1066   -2.2762   -0.5366 H   0  0  0  0  0  0  0  0  0  0  0  0
   -1.6120   -1.7329   -2.2027 H   0  0  0  0  0  0  0  0  0  0  0  0
  1 12  2  0  0  0  0
  2 23  1  0  0  0  0
  2 30  1  0  0  0  0
  3 20  2  0  0  0  0
  4  8  1  0  0  0  0
  4 12  1  0  0  0  0
  4 38  1  0  0  0  0
  5 19  1  0  0  0  0
  5 20  1  0  0  0  0
  5 45  1  0  0  0  0
  6  7  1  0  0  0  0
  6 28  1  0  0  0  0
  6 51  1  0  0  0  0
  7 29  2  0  0  0  0
  8  9  1  0  0  0  0
  8 10  1  0  0  0  0
  8 11  1  0  0  0  0
  9 10  1  0  0  0  0
  9 31  1  0  0  0  0
  9 32  1  0  0  0  0
 10 33  1  0  0  0  0
 10 34  1  0  0  0  0
 11 35  1  0  0  0  0
 11 36  1  0  0  0  0
 11 37  1  0  0  0  0
 12 13  1  0  0  0  0
 13 14  1  0  0  0  0
 13 15  2  0  0  0  0
 14 16  2  0  0  0  0
 14 39  1  0  0  0  0
 15 17  1  0  0  0  0
 15 40  1  0  0  0  0
 16 18  1  0  0  0  0
 16 19  1  0  0  0  0
 17 18  2  0  0  0  0
 17 41  1  0  0  0  0
 18 42  1  0  0  0  0
 19 43  1  0  0  0  0
 19 44  1  0  0  0  0
 20 21  1  0  0  0  0
 21 24  2  0  0  0  0
 21 25  1  0  0  0  0
 22 23  2  0  0  0  0
 22 26  1  0  0  0  0
 22 27  1  0  0  0  0
 23 24  1  0  0  0  0
 24 46  1  0  0  0  0
 25 26  2  0  0  0  0
 25 47  1  0  0  0  0
 26 48  1  0  0  0  0
 27 28  2  0  0  0  0
 27 29  1  0  0  0  0
 28 49  1  0  0  0  0
 29 50  1  0  0  0  0
 30 52  1  0  0  0  0
 30 53  1  0  0  0  0
 30 54  1  0  0  0  0
M  END
> <PUBCHEM_COMPOUND_CID>
90355357

> <PUBCHEM_CONFORMER_RMSD>
1

> <PUBCHEM_CONFORMER_DIVERSEORDER>
21
114
56
181
108
2
35
11
158
17
123
164
144
113
98
12
163
66
89
92
13
149
168
160
152
73
20
84
95
18
23
169
103
120
97
109
133
175
7
165
81
117
10
148
110
140
31
138
156
76
131
125
151
15
1
119
167
28
134
93
70
48
102
179
72
107
130
83
42
121
62
59
146
101
142
126
122
55
136
170
178
100
128
57
74
43
124
36
150
86
5
159
104
154
29
82
177
52
162
139
33
106
39
22
61
99
166
38
68
91
80
75
145
26
87
171
50
8
60
135
78
67
129
51
71
115
137
88
94
4
49
172
173
69
127
58
77
45
27
54
9
180
143
44
64
25
176
141
116
40
153
105
111
155
96
90
53
47
79
3
37
118
14
161
157
147
63
174
30
85
112
46
65
6
41
19
16
32
132
24
34

> <PUBCHEM_MMFF94_PARTIAL_CHARGES>
46
1 -0.57
10 -0.2
11 0.09
12 0.54
13 0.09
14 -0.15
15 -0.15
16 -0.14
17 -0.15
18 -0.15
19 0.44
2 -0.36
20 0.54
21 0.09
22 0.05
23 0.08
24 -0.15
25 -0.15
26 -0.15
27 -0.05
28 -0.3
29 0.14
3 -0.57
30 0.28
31 0.1
32 0.1
33 0.1
34 0.1
38 0.37
39 0.15
4 -0.58
40 0.15
41 0.15
42 0.15
45 0.37
46 0.15
47 0.15
48 0.15
49 0.15
5 -0.73
50 0.15
51 0.27
6 0.3
7 -0.71
8 0.05
9 -0.2

> <PUBCHEM_EFFECTIVE_ROTOR_COUNT>
9.6

> <PUBCHEM_PHARMACOPHORE_FEATURES>
10
1 1 acceptor
1 2 acceptor
1 3 acceptor
1 4 donor
1 5 donor
1 6 donor
1 7 acceptor
5 6 7 27 28 29 rings
6 13 14 15 16 17 18 rings
6 21 22 23 24 25 26 rings

> <PUBCHEM_HEAVY_ATOM_COUNT>
30

> <PUBCHEM_ATOM_DEF_STEREO_COUNT>
0

> <PUBCHEM_ATOM_UDEF_STEREO_COUNT>
0

> <PUBCHEM_BOND_DEF_STEREO_COUNT>
0

> <PUBCHEM_BOND_UDEF_STEREO_COUNT>
0

> <PUBCHEM_ISOTOPIC_ATOM_COUNT>
0

> <PUBCHEM_COMPONENT_COUNT>
1

> <PUBCHEM_CACTVS_TAUTO_COUNT>
14

> <PUBCHEM_CONFORMER_ID>
0562B69D00000015

> <PUBCHEM_MMFF94_ENERGY>
86.269

> <PUBCHEM_FEATURE_SELFOVERLAP>
50.748

> <PUBCHEM_SHAPE_FINGERPRINT>
10864689 126 18040428885225711691
10939801 23 18341893031000645486
11135926 11 18122614218226936092
117089 54 18336557040150800434
11756154 67 18409453548817893630
11963148 33 18050849111245496543
12107183 9 18198069079524193433
12107698 1 18411138017468825395
13533116 47 18340487880082301121
13551218 46 18340207500844068173
1361 87 17386305275385836075
14251740 57 18409167735824052000
14420673 8 18266744588521013572
14725015 67 18336262362344076427
15510800 12 18334845113525589760
16110190 28 18343016654337301500
16120349 21 18340213977518022705
16728300 4 18412824686202790263
16990366 60 18263073345952344962
17492 89 18409729564638417864
1813 80 17676766556267402469
19841028 212 18408323315405191451
20165401 70 18339922740175996679
208703 8 18335132060264697290
21033648 29 13901919886281612241
21130935 74 18267589177582939379
21682296 61 18408045126310213123
21792934 111 18343578539249759105
23522609 53 17975449891408373180
23559900 14 18412535501354393552
270888 7 10087631598849348468
3504750 166 18343866624418411021
3680242 22 18341343291981433133
439807 62 18407761417285811771
4461854 278 17846497041715033606
474113 269 18343293796014037159
5104073 3 18131637780974687497
56633871 153 18341890818248735847
5718773 13 18335700516291942514
5874358 3 17559656504379891615
6712543 237 16415479342021925559
7970288 3 18334575724486876650
8863177 126 18410291368457563088

> <PUBCHEM_SHAPE_MULTIPOLES>
579.85
20.65
4.78
1.13
5.29
0.57
0.08
-23.87
-4.05
-4.81
-0.49
-0.77
-0.14
0.23

> <PUBCHEM_SHAPE_SELFOVERLAP>
1257.766

> <PUBCHEM_SHAPE_VOLUME>
317.5

> <PUBCHEM_COORDINATE_TYPE>
2
5
10

$$$$
85470575
  -OEChem-05102415133D

 51 54  0     0  0  0  0  0  0999 V2000
    2.0420   -0.9679   -2.8402 Cl  0  0  0  0  0  0  0  0  0  0  0  0
   -3.4828    1.4681   -1.3651 O   0  0  0  0  0  0  0  0  0  0  0  0
    5.6109   -0.2663    0.6988 O   0  0  0  0  0  0  0  0  0  0  0  0
   -0.6226   -2.8510    1.4812 O   0  0  0  0  0  0  0  0  0  0  0  0
   -0.2155   -2.3189   -0.7387 N   0  0  0  0  0  0  0  0  0  0  0  0
   -7.7673    1.4979    0.2003 N   0  0  0  0  0  0  0  0  0  0  0  0
   -7.1589    2.6560    0.5081 N   0  0  0  0  0  0  0  0  0  0  0  0
   -4.4645    0.1411    0.3823 C   0  0  0  0  0  0  0  0  0  0  0  0
    0.9875   -3.1071   -0.8822 C   0  0  0  0  0  0  0  0  0  0  0  0
   -2.1552   -1.4237    0.4266 C   0  0  0  0  0  0  0  0  0  0  0  0
    2.2145   -2.3360   -0.4899 C   0  0  0  0  0  0  0  0  0  0  0  0
   -3.4109    0.4280   -0.4857 C   0  0  0  0  0  0  0  0  0  0  0  0
   -2.2561   -0.3544   -0.4635 C   0  0  0  0  0  0  0  0  0  0  0  0
   -4.3634   -0.9280    1.2725 C   0  0  0  0  0  0  0  0  0  0  0  0
   -5.6645    0.9338    0.3747 C   0  0  0  0  0  0  0  0  0  0  0  0
   -3.2089   -1.7105    1.2946 C   0  0  0  0  0  0  0  0  0  0  0  0
   -0.9524   -2.2407    0.4488 C   0  0  0  0  0  0  0  0  0  0  0  0
    2.7566   -1.3519   -1.3167 C   0  0  0  0  0  0  0  0  0  0  0  0
    2.8135   -2.6241    0.7366 C   0  0  0  0  0  0  0  0  0  0  0  0
    4.4967   -0.9444    0.3091 C   0  0  0  0  0  0  0  0  0  0  0  0
    3.8976   -0.6562   -0.9172 C   0  0  0  0  0  0  0  0  0  0  0  0
    3.9548   -1.9285    1.1360 C   0  0  0  0  0  0  0  0  0  0  0  0
   -6.9166    0.4358    0.1084 C   0  0  0  0  0  0  0  0  0  0  0  0
   -5.8745    2.3051    0.6134 C   0  0  0  0  0  0  0  0  0  0  0  0
    5.6195    1.1082    0.5308 C   0  0  0  0  0  0  0  0  0  0  0  0
   -4.0248    1.1886   -2.6536 C   0  0  0  0  0  0  0  0  0  0  0  0
    4.5045    1.8623    0.8963 C   0  0  0  0  0  0  0  0  0  0  0  0
    6.7425    1.7384   -0.0054 C   0  0  0  0  0  0  0  0  0  0  0  0
    4.5124    3.2468    0.7257 C   0  0  0  0  0  0  0  0  0  0  0  0
    6.7504    3.1228   -0.1760 C   0  0  0  0  0  0  0  0  0  0  0  0
    5.6354    3.8770    0.1898 C   0  0  0  0  0  0  0  0  0  0  0  0
    1.0520   -3.4500   -1.9207 H   0  0  0  0  0  0  0  0  0  0  0  0
    0.8861   -4.0123   -0.2713 H   0  0  0  0  0  0  0  0  0  0  0  0
   -1.4428   -0.0819   -1.1305 H   0  0  0  0  0  0  0  0  0  0  0  0
   -5.1713   -1.1675    1.9602 H   0  0  0  0  0  0  0  0  0  0  0  0
   -0.5448   -1.8497   -1.5754 H   0  0  0  0  0  0  0  0  0  0  0  0
   -3.1516   -2.5414    1.9930 H   0  0  0  0  0  0  0  0  0  0  0  0
    2.4039   -3.3863    1.3942 H   0  0  0  0  0  0  0  0  0  0  0  0
    4.3244    0.0923   -1.5812 H   0  0  0  0  0  0  0  0  0  0  0  0
    4.4168   -2.1569    2.0925 H   0  0  0  0  0  0  0  0  0  0  0  0
   -7.2778   -0.5539   -0.1351 H   0  0  0  0  0  0  0  0  0  0  0  0
   -5.1480    3.0665    0.8604 H   0  0  0  0  0  0  0  0  0  0  0  0
   -8.7706    1.5041    0.0654 H   0  0  0  0  0  0  0  0  0  0  0  0
   -4.0623    2.1238   -3.2189 H   0  0  0  0  0  0  0  0  0  0  0  0
   -5.0400    0.7875   -2.5759 H   0  0  0  0  0  0  0  0  0  0  0  0
   -3.3841    0.4819   -3.1907 H   0  0  0  0  0  0  0  0  0  0  0  0
    3.6249    1.3999    1.3362 H   0  0  0  0  0  0  0  0  0  0  0  0
    7.6134    1.1557   -0.2925 H   0  0  0  0  0  0  0  0  0  0  0  0
    3.6461    3.8347    1.0147 H   0  0  0  0  0  0  0  0  0  0  0  0
    7.6248    3.6135   -0.5934 H   0  0  0  0  0  0  0  0  0  0  0  0
    5.6421    4.9551    0.0581 H   0  0  0  0  0  0  0  0  0  0  0  0
  1 18  1  0  0  0  0
  2 12  1  0  0  0  0
  2 26  1  0  0  0  0
  3 20  1  0  0  0  0
  3 25  1  0  0  0  0
  4 17  2  0  0  0  0
  5  9  1  0  0  0  0
  5 17  1  0  0  0  0
  5 36  1  0  0  0  0
  6  7  1  0  0  0  0
  6 23  1  0  0  0  0
  6 43  1  0  0  0  0
  7 24  2  0  0  0  0
  8 12  2  0  0  0  0
  8 14  1  0  0  0  0
  8 15  1  0  0  0  0
  9 11  1  0  0  0  0
  9 32  1  0  0  0  0
  9 33  1  0  0  0  0
 10 13  2  0  0  0  0
 10 16  1  0  0  0  0
 10 17  1  0  0  0  0
 11 18  2  0  0  0  0
 11 19  1  0  0  0  0
 12 13  1  0  0  0  0
 13 34  1  0  0  0  0
 14 16  2  0  0  0  0
 14 35  1  0  0  0  0
 15 23  2  0  0  0  0
 15 24  1  0  0  0  0
 16 37  1  0  0  0  0
 18 21  1  0  0  0  0
 19 22  2  0  0  0  0
 19 38  1  0  0  0  0
 20 21  2  0  0  0  0
 20 22  1  0  0  0  0
 21 39  1  0  0  0  0
 22 40  1  0  0  0  0
 23 41  1  0  0  0  0
 24 42  1  0  0  0  0
 25 27  2  0  0  0  0
 25 28  1  0  0  0  0
 26 44  1  0  0  0  0
 26 45  1  0  0  0  0
 26 46  1  0  0  0  0
 27 29  1  0  0  0  0
 27 47  1  0  0  0  0
 28 30  2  0  0  0  0
 28 48  1  0  0  0  0
 29 31  2  0  0  0  0
 29 49  1  0  0  0  0
 30 31  1  0  0  0  0
 30 50  1  0  0  0  0
 31 51  1  0  0  0  0
M  END
> <PUBCHEM_COMPOUND_CID>
85470575

> <PUBCHEM_CONFORMER_RMSD>
1

> <PUBCHEM_CONFORMER_DIVERSEORDER>
1
107
101
7
104
35
119
50
51
83
70
9
94
105
76
47
33
80
16
79
55
113
78
56
102
108
120
45
95
103
17
96
109
12
93
84
114
62
92
37
122
22
23
40
34
66
77
29
15
60
91
118
69
20
110
117
124
53
5
97
89
68
99
106
59
75
100
42
87
63
6
46
123
27
26
49
52
58
71
14
111
65
85
11
115
57
48
30
54
21
8
41
74
39
24
67
4
19
81
43
38
32
25
82
28
112
88
64
13
73
98
18
31
36
2
116
61
90
44
121
3
86
10
72

> <PUBCHEM_MMFF94_PARTIAL_CHARGES>
46
1 -0.18
10 0.09
11 -0.14
12 0.08
13 -0.15
14 -0.15
15 -0.05
16 -0.15
17 0.54
18 0.18
19 -0.15
2 -0.36
20 0.08
21 -0.15
22 -0.15
23 -0.3
24 0.14
25 0.08
26 0.28
27 -0.15
28 -0.15
29 -0.15
3 -0.17
30 -0.15
31 -0.15
34 0.15
35 0.15
36 0.37
37 0.15
38 0.15
39 0.15
4 -0.57
40 0.15
41 0.15
42 0.15
43 0.27
47 0.15
48 0.15
49 0.15
5 -0.73
50 0.15
51 0.15
6 0.3
7 -0.71
8 0.05
9 0.44

> <PUBCHEM_EFFECTIVE_ROTOR_COUNT>
8

> <PUBCHEM_PHARMACOPHORE_FEATURES>
10
1 2 acceptor
1 3 acceptor
1 4 acceptor
1 5 donor
1 6 donor
1 7 acceptor
5 6 7 15 23 24 rings
6 11 18 19 20 21 22 rings
6 25 27 28 29 30 31 rings
6 8 10 12 13 14 16 rings

> <PUBCHEM_HEAVY_ATOM_COUNT>
31

> <PUBCHEM_ATOM_DEF_STEREO_COUNT>
0

> <PUBCHEM_ATOM_UDEF_STEREO_COUNT>
0

> <PUBCHEM_BOND_DEF_STEREO_COUNT>
0

> <PUBCHEM_BOND_UDEF_STEREO_COUNT>
0

> <PUBCHEM_ISOTOPIC_ATOM_COUNT>
0

> <PUBCHEM_COMPONENT_COUNT>
1

> <PUBCHEM_CACTVS_TAUTO_COUNT>
9

> <PUBCHEM_CONFORMER_ID>
05182D6F00000001

> <PUBCHEM_MMFF94_ENERGY>
100.6188

> <PUBCHEM_FEATURE_SELFOVERLAP>
50.748

> <PUBCHEM_SHAPE_FINGERPRINT>
10074138 170 17241056508577002011
10280341 67 18058438980578968000
10673678 19 18272654545103712882
11017883 126 16629128645949399310
11578821 258 18198342841837340969
12633257 1 15574992953141314330
12895837 130 18271806860878790431
12925494 130 18337951310872524625
12975358 362 18266765603971002433
13782708 43 9079105653699398283
13944108 23 18270966722263119176
14114211 68 15841559548310612855
14117953 113 18272936008160833488
14251764 30 8718829777510091915
14251764 75 18411415159334899384
14739800 52 18114740409306873979
14951699 99 18114749343081286588
15198563 99 17337586108902985350
15475509 35 11602826817505177366
15510800 12 10375870771009784324
15979999 66 17554623798767267862
16993089 31 12607113089527875949
18393751 57 18260267434964377275
20691028 202 18412823616276028312
20715895 44 18413672400755981106
21033648 29 18186528712889843338
21585482 57 18340195380530683799
22122407 14 18340778056577864491
23559900 14 17897750677090402079
23569914 2 16627685232860629888
27425 322 18272649026445791207
2748736 6 18342451569336949152
3472631 163 18272933821125973590
34797466 226 17774730762486518623
394071 54 18342748394284377233
4112364 45 18260817203520379370
4169191 19 18341614794192366961
4258327 124 18060698408169440263
5104073 3 15720260403348224803
5109719 28 18341061761243916825
57724786 102 18412539895369064222
5951187 136 18271251512864716534
6176135 31 18041283265473343316
9849439 229 18335707173649831694

> <PUBCHEM_SHAPE_MULTIPOLES>
607.28
20.59
4.34
1.68
10.91
1.51
1.28
22.9
-3.55
-5.04
-0.64
0.43
-0.48
1.22

> <PUBCHEM_SHAPE_SELFOVERLAP>
1325.524

> <PUBCHEM_SHAPE_VOLUME>
330

> <PUBCHEM_COORDINATE_TYPE>
2
5
10

$$$$
118663061
  -OEChem-05102415133D

 44 46  0     1  0  0  0  0  0999 V2000
    3.2446    1.2165   -2.0307 F   0  0  0  0  0  0  0  0  0  0  0  0
    4.7115   -0.6909    2.0620 F   0  0  0  0  0  0  0  0  0  0  0  0
    2.6983   -2.9845   -1.4161 O   0  0  0  0  0  0  0  0  0  0  0  0
   -4.2196   -1.8280   -0.0193 O   0  0  0  0  0  0  0  0  0  0  0  0
    0.7530   -2.4352    0.7402 O   0  0  0  0  0  0  0  0  0  0  0  0
    1.6359   -0.4933   -0.1687 N   0  0  0  0  0  0  0  0  0  0  0  0
   -6.3256    2.1767   -0.6037 N   0  0  0  0  0  0  0  0  0  0  0  0
   -6.7863    1.5741    0.5057 N   0  0  0  0  0  0  0  0  0  0  0  0
    3.0130   -0.9311   -0.1946 C   0  0  2  0  0  0  0  0  0  0  0  0
    3.9553    0.2352    0.0111 C   0  0  0  0  0  0  0  0  0  0  0  0
    3.3004   -1.6962   -1.4892 C   0  0  0  0  0  0  0  0  0  0  0  0
   -0.7533   -0.7090    0.2404 C   0  0  0  0  0  0  0  0  0  0  0  0
    0.5813   -1.2835    0.3030 C   0  0  0  0  0  0  0  0  0  0  0  0
   -3.3133    0.3937    0.1240 C   0  0  0  0  0  0  0  0  0  0  0  0
    4.0161    1.2581   -0.9352 C   0  0  0  0  0  0  0  0  0  0  0  0
    4.7627    0.2875    1.1476 C   0  0  0  0  0  0  0  0  0  0  0  0
   -3.1475   -0.9907    0.0808 C   0  0  0  0  0  0  0  0  0  0  0  0
   -1.8675   -1.5420    0.1390 C   0  0  0  0  0  0  0  0  0  0  0  0
   -0.9189    0.6753    0.2836 C   0  0  0  0  0  0  0  0  0  0  0  0
   -2.1989    1.2267    0.2251 C   0  0  0  0  0  0  0  0  0  0  0  0
   -4.6240    0.9830    0.0671 C   0  0  0  0  0  0  0  0  0  0  0  0
    4.8842    2.3334   -0.7454 C   0  0  0  0  0  0  0  0  0  0  0  0
    5.6308    1.3627    1.3374 C   0  0  0  0  0  0  0  0  0  0  0  0
    5.6917    2.3855    0.3909 C   0  0  0  0  0  0  0  0  0  0  0  0
   -5.0358    1.8561   -0.9100 C   0  0  0  0  0  0  0  0  0  0  0  0
   -5.7422    0.8462    0.9111 C   0  0  0  0  0  0  0  0  0  0  0  0
   -3.9459   -3.2266   -0.0562 C   0  0  0  0  0  0  0  0  0  0  0  0
    3.1312   -1.6370    0.6374 H   0  0  0  0  0  0  0  0  0  0  0  0
    1.4305    0.3994   -0.6056 H   0  0  0  0  0  0  0  0  0  0  0  0
    2.9044   -1.1828   -2.3718 H   0  0  0  0  0  0  0  0  0  0  0  0
    4.3773   -1.8461   -1.6245 H   0  0  0  0  0  0  0  0  0  0  0  0
   -1.6802   -2.6095    0.1025 H   0  0  0  0  0  0  0  0  0  0  0  0
   -0.0816    1.3582    0.3946 H   0  0  0  0  0  0  0  0  0  0  0  0
   -2.3061    2.3081    0.2718 H   0  0  0  0  0  0  0  0  0  0  0  0
    4.9314    3.1296   -1.4824 H   0  0  0  0  0  0  0  0  0  0  0  0
    6.2594    1.4031    2.2221 H   0  0  0  0  0  0  0  0  0  0  0  0
    6.3677    3.2226    0.5387 H   0  0  0  0  0  0  0  0  0  0  0  0
    2.9055   -3.4435   -2.2478 H   0  0  0  0  0  0  0  0  0  0  0  0
   -4.5448    2.2719   -1.7792 H   0  0  0  0  0  0  0  0  0  0  0  0
   -5.8439    0.2482    1.8059 H   0  0  0  0  0  0  0  0  0  0  0  0
   -6.9479    2.7972   -1.1063 H   0  0  0  0  0  0  0  0  0  0  0  0
   -4.9104   -3.7394   -0.1346 H   0  0  0  0  0  0  0  0  0  0  0  0
   -3.3697   -3.5039   -0.9457 H   0  0  0  0  0  0  0  0  0  0  0  0
   -3.4804   -3.5738    0.8726 H   0  0  0  0  0  0  0  0  0  0  0  0
  1 15  1  0  0  0  0
  2 16  1  0  0  0  0
  3 11  1  0  0  0  0
  3 38  1  0  0  0  0
  4 17  1  0  0  0  0
  4 27  1  0  0  0  0
  5 13  2  0  0  0  0
  6  9  1  0  0  0  0
  6 13  1  0  0  0  0
  6 29  1  0  0  0  0
  7  8  1  0  0  0  0
  7 25  1  0  0  0  0
  7 41  1  0  0  0  0
  8 26  2  0  0  0  0
  9 10  1  0  0  0  0
  9 11  1  0  0  0  0
  9 28  1  0  0  0  0
 10 15  2  0  0  0  0
 10 16  1  0  0  0  0
 11 30  1  0  0  0  0
 11 31  1  0  0  0  0
 12 13  1  0  0  0  0
 12 18  2  0  0  0  0
 12 19  1  0  0  0  0
 14 17  2  0  0  0  0
 14 20  1  0  0  0  0
 14 21  1  0  0  0  0
 15 22  1  0  0  0  0
 16 23  2  0  0  0  0
 17 18  1  0  0  0  0
 18 32  1  0  0  0  0
 19 20  2  0  0  0  0
 19 33  1  0  0  0  0
 20 34  1  0  0  0  0
 21 25  2  0  0  0  0
 21 26  1  0  0  0  0
 22 24  2  0  0  0  0
 22 35  1  0  0  0  0
 23 24  1  0  0  0  0
 23 36  1  0  0  0  0
 24 37  1  0  0  0  0
 25 39  1  0  0  0  0
 26 40  1  0  0  0  0
 27 42  1  0  0  0  0
 27 43  1  0  0  0  0
 27 44  1  0  0  0  0
M  END
> <PUBCHEM_COMPOUND_CID>
118663061

> <PUBCHEM_CONFORMER_RMSD>
0.8

> <PUBCHEM_CONFORMER_DIVERSEORDER>
3
50
4
48
34
21
36
39
57
11
46
6
55
44
45
37
22
10
28
42
26
51
32
25
29
12
35
52
49
16
59
53
7
56
24
9
47
40
41
5
13
19
27
38
43
23
20
31
15
33
18
2
30
14
8
58
1
17
54

> <PUBCHEM_MMFF94_PARTIAL_CHARGES>
38
1 -0.19
10 -0.14
11 0.28
12 0.09
13 0.54
14 0.05
15 0.19
16 0.19
17 0.08
18 -0.15
19 -0.15
2 -0.19
20 -0.15
21 -0.05
22 -0.15
23 -0.15
24 -0.15
25 -0.3
26 0.14
27 0.28
29 0.37
3 -0.68
32 0.15
33 0.15
34 0.15
35 0.15
36 0.15
37 0.15
38 0.4
39 0.15
4 -0.36
40 0.15
41 0.27
5 -0.57
6 -0.73
7 0.3
8 -0.71
9 0.44

> <PUBCHEM_EFFECTIVE_ROTOR_COUNT>
7

> <PUBCHEM_PHARMACOPHORE_FEATURES>
10
1 3 acceptor
1 3 donor
1 4 acceptor
1 5 acceptor
1 6 donor
1 7 donor
1 8 acceptor
5 7 8 21 25 26 rings
6 10 15 16 22 23 24 rings
6 12 14 17 18 19 20 rings

> <PUBCHEM_HEAVY_ATOM_COUNT>
27

> <PUBCHEM_ATOM_DEF_STEREO_COUNT>
1

> <PUBCHEM_ATOM_UDEF_STEREO_COUNT>
0

> <PUBCHEM_BOND_DEF_STEREO_COUNT>
0

> <PUBCHEM_BOND_UDEF_STEREO_COUNT>
0

> <PUBCHEM_ISOTOPIC_ATOM_COUNT>
0

> <PUBCHEM_COMPONENT_COUNT>
1

> <PUBCHEM_CACTVS_TAUTO_COUNT>
9

> <PUBCHEM_CONFORMER_ID>
0712A79500000003

> <PUBCHEM_MMFF94_ENERGY>
72.9316

> <PUBCHEM_FEATURE_SELFOVERLAP>
50.75

> <PUBCHEM_SHAPE_FINGERPRINT>
10 15 18114187445263087921
12107183 9 18116135693984076690
12403259 118 18263638627523978312
12422481 6 17022899008884580589
12539765 74 17702390555648360341
12616971 3 17530964700268828053
12788726 201 17392494590070349906
13533116 47 17916590821315227718
14170010 4 18130788894454164718
15131766 46 14203404974033239719
1577012 14 18260544567823798384
15840311 113 18196664991161013533
17980427 23 18187364393102465935
18222031 100 12535341286096192659
19377110 9 18040718121049726331
20511986 3 18260815017096928301
20691028 202 18127417753001538017
20715895 44 18261950756452618981
21859007 373 17606387761966057581
22149856 69 18267329585585850153
23227448 37 18335423474116984149
23559900 14 18270970024961282750
24771750 20 18052260884445047229
2748736 6 18410567350034283449
3472631 163 18410573998078713668
34797466 226 17631743775712951325
3680242 22 18187082819457902472
465052 167 7853856100816600264
5104073 3 18113900476522072123
960060 61 12463572889628623672
9981440 41 18260269693405149154

> <PUBCHEM_SHAPE_MULTIPOLES>
508.55
16.59
3.07
1.26
6.18
1.39
-0.09
-11.52
1.67
0.89
-0.64
-1.78
-0.01
0.62

> <PUBCHEM_SHAPE_SELFOVERLAP>
1109.19

> <PUBCHEM_SHAPE_VOLUME>
277.1

> <PUBCHEM_COORDINATE_TYPE>
2
5
10

$$$$
90353978
  -OEChem-05102415133D

 43 45  0     0  0  0  0  0  0999 V2000
    2.5661   -0.2675    2.1819 Cl  0  0  0  0  0  0  0  0  0  0  0  0
   -1.8861   -1.7145   -0.5510 O   0  0  0  0  0  0  0  0  0  0  0  0
    1.1303    3.2242    0.6142 O   0  0  0  0  0  0  0  0  0  0  0  0
    1.9147    1.5851   -0.8264 N   0  0  0  0  0  0  0  0  0  0  0  0
   -6.2182   -0.8253    0.5680 N   0  0  0  0  0  0  0  0  0  0  0  0
   -6.1545   -1.2745   -0.6970 N   0  0  0  0  0  0  0  0  0  0  0  0
    4.1708    1.4502    0.1763 C   0  0  0  0  0  0  0  0  0  0  0  0
    3.2767    2.0633   -0.8988 C   0  0  0  0  0  0  0  0  0  0  0  0
    4.2744   -0.0515    0.0694 C   0  0  0  0  0  0  0  0  0  0  0  0
   -0.4002    1.5872   -0.0760 C   0  0  0  0  0  0  0  0  0  0  0  0
   -2.9265    0.4036   -0.0936 C   0  0  0  0  0  0  0  0  0  0  0  0
   -1.7904   -0.3740   -0.3187 C   0  0  0  0  0  0  0  0  0  0  0  0
    0.9167    2.2042   -0.0649 C   0  0  0  0  0  0  0  0  0  0  0  0
   -0.5273    0.2179   -0.3099 C   0  0  0  0  0  0  0  0  0  0  0  0
   -1.5363    2.3648    0.1490 C   0  0  0  0  0  0  0  0  0  0  0  0
   -2.7993    1.7730    0.1399 C   0  0  0  0  0  0  0  0  0  0  0  0
   -4.2380   -0.1865   -0.0967 C   0  0  0  0  0  0  0  0  0  0  0  0
    3.5821   -0.8967    0.9365 C   0  0  0  0  0  0  0  0  0  0  0  0
    5.0884   -0.5898   -0.9274 C   0  0  0  0  0  0  0  0  0  0  0  0
   -5.0956   -0.1667    0.9761 C   0  0  0  0  0  0  0  0  0  0  0  0
    3.7039   -2.2803    0.8072 C   0  0  0  0  0  0  0  0  0  0  0  0
    5.2100   -1.9734   -1.0569 C   0  0  0  0  0  0  0  0  0  0  0  0
   -4.9426   -0.8813   -1.0978 C   0  0  0  0  0  0  0  0  0  0  0  0
    4.5179   -2.8187   -0.1895 C   0  0  0  0  0  0  0  0  0  0  0  0
   -1.8370   -2.5726    0.5863 C   0  0  0  0  0  0  0  0  0  0  0  0
    5.1806    1.8703    0.0728 H   0  0  0  0  0  0  0  0  0  0  0  0
    3.8416    1.7756    1.1679 H   0  0  0  0  0  0  0  0  0  0  0  0
    3.2762    3.1541   -0.7970 H   0  0  0  0  0  0  0  0  0  0  0  0
    3.6465    1.8240   -1.9019 H   0  0  0  0  0  0  0  0  0  0  0  0
    1.6896    0.7825   -1.4044 H   0  0  0  0  0  0  0  0  0  0  0  0
    0.3371   -0.4228   -0.4611 H   0  0  0  0  0  0  0  0  0  0  0  0
   -1.4585    3.4340    0.3281 H   0  0  0  0  0  0  0  0  0  0  0  0
   -3.6719    2.3989    0.3125 H   0  0  0  0  0  0  0  0  0  0  0  0
    5.6345    0.0563   -1.6098 H   0  0  0  0  0  0  0  0  0  0  0  0
   -5.0163    0.2435    1.9735 H   0  0  0  0  0  0  0  0  0  0  0  0
   -4.6274   -1.1193   -2.1041 H   0  0  0  0  0  0  0  0  0  0  0  0
    3.1708   -2.9526    1.4747 H   0  0  0  0  0  0  0  0  0  0  0  0
    5.8437   -2.3927   -1.8329 H   0  0  0  0  0  0  0  0  0  0  0  0
    4.6126   -3.8959   -0.2906 H   0  0  0  0  0  0  0  0  0  0  0  0
   -7.0614   -1.0043    1.0989 H   0  0  0  0  0  0  0  0  0  0  0  0
   -2.6322   -2.3304    1.2978 H   0  0  0  0  0  0  0  0  0  0  0  0
   -0.8612   -2.4981    1.0770 H   0  0  0  0  0  0  0  0  0  0  0  0
   -1.9772   -3.6017    0.2443 H   0  0  0  0  0  0  0  0  0  0  0  0
  1 18  1  0  0  0  0
  2 12  1  0  0  0  0
  2 25  1  0  0  0  0
  3 13  2  0  0  0  0
  4  8  1  0  0  0  0
  4 13  1  0  0  0  0
  4 30  1  0  0  0  0
  5  6  1  0  0  0  0
  5 20  1  0  0  0  0
  5 40  1  0  0  0  0
  6 23  2  0  0  0  0
  7  8  1  0  0  0  0
  7  9  1  0  0  0  0
  7 26  1  0  0  0  0
  7 27  1  0  0  0  0
  8 28  1  0  0  0  0
  8 29  1  0  0  0  0
  9 18  1  0  0  0  0
  9 19  2  0  0  0  0
 10 13  1  0  0  0  0
 10 14  2  0  0  0  0
 10 15  1  0  0  0  0
 11 12  2  0  0  0  0
 11 16  1  0  0  0  0
 11 17  1  0  0  0  0
 12 14  1  0  0  0  0
 14 31  1  0  0  0  0
 15 16  2  0  0  0  0
 15 32  1  0  0  0  0
 16 33  1  0  0  0  0
 17 20  2  0  0  0  0
 17 23  1  0  0  0  0
 18 21  2  0  0  0  0
 19 22  1  0  0  0  0
 19 34  1  0  0  0  0
 20 35  1  0  0  0  0
 21 24  1  0  0  0  0
 21 37  1  0  0  0  0
 22 24  2  0  0  0  0
 22 38  1  0  0  0  0
 23 36  1  0  0  0  0
 24 39  1  0  0  0  0
 25 41  1  0  0  0  0
 25 42  1  0  0  0  0
 25 43  1  0  0  0  0
M  END
> <PUBCHEM_COMPOUND_CID>
90353978

> <PUBCHEM_CONFORMER_RMSD>
0.8

> <PUBCHEM_CONFORMER_DIVERSEORDER>
1
21
71
46
40
22
14
67
65
66
41
18
26
48
74
25
91
63
94
43
78
13
61
62
38
4
50
17
82
79
34
42
10
64
12
93
27
84
73
72
49
37
85
15
81
9
20
90
88
56
47
3
16
57
36
55
80
11
77
70
31
28
19
8
2
24
87
35
39
32
89
45
69
29
58
30
59
53
86
52
7
83
44
68
92
33
6
75
60
54
5
76
23
51

> <PUBCHEM_MMFF94_PARTIAL_CHARGES>
36
1 -0.18
10 0.09
11 0.05
12 0.08
13 0.54
14 -0.15
15 -0.15
16 -0.15
17 -0.05
18 0.18
19 -0.15
2 -0.36
20 -0.3
21 -0.15
22 -0.15
23 0.14
24 -0.15
25 0.28
3 -0.57
30 0.37
31 0.15
32 0.15
33 0.15
34 0.15
35 0.15
36 0.15
37 0.15
38 0.15
39 0.15
4 -0.73
40 0.27
5 0.3
6 -0.71
7 0.14
8 0.3
9 -0.14

> <PUBCHEM_EFFECTIVE_ROTOR_COUNT>
7

> <PUBCHEM_PHARMACOPHORE_FEATURES>
8
1 2 acceptor
1 3 acceptor
1 4 donor
1 5 donor
1 6 acceptor
5 5 6 17 20 23 rings
6 10 11 12 14 15 16 rings
6 9 18 19 21 22 24 rings

> <PUBCHEM_HEAVY_ATOM_COUNT>
25

> <PUBCHEM_ATOM_DEF_STEREO_COUNT>
0

> <PUBCHEM_ATOM_UDEF_STEREO_COUNT>
0

> <PUBCHEM_BOND_DEF_STEREO_COUNT>
0

> <PUBCHEM_BOND_UDEF_STEREO_COUNT>
0

> <PUBCHEM_ISOTOPIC_ATOM_COUNT>
0

> <PUBCHEM_COMPONENT_COUNT>
1

> <PUBCHEM_CACTVS_TAUTO_COUNT>
7

> <PUBCHEM_CONFORMER_ID>
0562B13A00000001

> <PUBCHEM_MMFF94_ENERGY>
69.5567

> <PUBCHEM_FEATURE_SELFOVERLAP>
40.597

> <PUBCHEM_SHAPE_FINGERPRINT>
11796584 16 17749382702707333009
11991303 11 17534620400881870181
12107183 9 18127140679954641177
12403259 327 16128646475350751422
12422481 6 17561085765772543959
12553582 1 18337378401190285976
12596602 18 17489590077705100704
12788726 201 18059592294502353297
13150687 139 18043552692998538692
13533116 47 18341895224737345076
13551218 46 18413954983844764423
1361 2 18412542136788572518
13965767 371 11815318353469734696
14251740 57 18343300349564294590
14347332 77 18410572860308240085
14617045 38 18409455812381391078
14784336 7 18058724862011937747
14931854 50 18187371987243396678
15324115 91 15647044941972023834
17349148 13 17988927777511963677
17492 89 18267021657467875054
1813 80 17603585227122948276
19319366 153 17967249802260021682
20645477 70 18187644730266621196
21267235 1 18410863139999231078
21279426 13 18335695001918159013
21682296 61 18340775853629360839
22950370 63 18340209596223794688
23522609 53 18053700002957118713
23559900 14 18265330796977730849
3004659 81 18260266352305129380
314173 41 18408888468734701540
314194 84 18411983597987311321
345986 75 18341887433861719800
3472631 163 10809352134890551450
34797466 226 14057006001268348043
3680242 22 18341343227367123555
46194498 28 17458345286170746884
463206 1 18339641264776812078
465052 167 18342745147357283719
5104073 3 18202000980349423008
7970288 3 18338233748291590030

> <PUBCHEM_SHAPE_MULTIPOLES>
489.68
13.74
3.19
1.19
7.69
0.52
-0.37
-8.29
1.64
-2.24
0.01
-0.7
-0.24
-0.28

> <PUBCHEM_SHAPE_SELFOVERLAP>
1051.192

> <PUBCHEM_SHAPE_VOLUME>
271.4

> <PUBCHEM_COORDINATE_TYPE>
2
5
10

$$$$
118662991
  -OEChem-05102415133D

 39 41  0     0  0  0  0  0  0999 V2000
   -3.5414   -2.7169   -1.1925 Cl  0  0  0  0  0  0  0  0  0  0  0  0
   -4.2889    2.1356    0.1877 F   0  0  0  0  0  0  0  0  0  0  0  0
   -1.2963    2.1041   -0.1767 O   0  0  0  0  0  0  0  0  0  0  0  0
   -1.6749    0.0823   -1.2472 N   0  0  0  0  0  0  0  0  0  0  0  0
    6.5275   -1.3576   -0.1132 N   0  0  0  0  0  0  0  0  0  0  0  0
    6.6685   -0.7332    1.0684 N   0  0  0  0  0  0  0  0  0  0  0  0
    3.1975   -0.0615    0.0176 C   0  0  0  0  0  0  0  0  0  0  0  0
    2.8330    1.2832   -0.0528 C   0  0  0  0  0  0  0  0  0  0  0  0
    0.5256    0.6408   -0.3710 C   0  0  0  0  0  0  0  0  0  0  0  0
    1.4970    1.6342   -0.2471 C   0  0  0  0  0  0  0  0  0  0  0  0
    4.5682   -0.4502    0.2164 C   0  0  0  0  0  0  0  0  0  0  0  0
    2.2261   -1.0549   -0.1066 C   0  0  0  0  0  0  0  0  0  0  0  0
    0.8902   -0.7038   -0.3007 C   0  0  0  0  0  0  0  0  0  0  0  0
   -3.0708    0.3091   -1.5452 C   0  0  0  0  0  0  0  0  0  0  0  0
   -0.8674    1.0062   -0.5737 C   0  0  0  0  0  0  0  0  0  0  0  0
   -3.9643   -0.1365   -0.4239 C   0  0  0  0  0  0  0  0  0  0  0  0
    3.8461    2.3757    0.0749 C   0  0  0  0  0  0  0  0  0  0  0  0
    5.2880   -1.2188   -0.6655 C   0  0  0  0  0  0  0  0  0  0  0  0
    5.4683   -0.1808    1.2646 C   0  0  0  0  0  0  0  0  0  0  0  0
   -4.2279   -1.4869   -0.1949 C   0  0  0  0  0  0  0  0  0  0  0  0
   -4.5356    0.8349    0.3981 C   0  0  0  0  0  0  0  0  0  0  0  0
   -5.0631   -1.8661    0.8561 C   0  0  0  0  0  0  0  0  0  0  0  0
   -5.3708    0.4557    1.4492 C   0  0  0  0  0  0  0  0  0  0  0  0
   -5.6347   -0.8947    1.6780 C   0  0  0  0  0  0  0  0  0  0  0  0
    1.2160    2.6834   -0.3046 H   0  0  0  0  0  0  0  0  0  0  0  0
    2.4866   -2.1091   -0.0434 H   0  0  0  0  0  0  0  0  0  0  0  0
   -3.3126   -0.2187   -2.4744 H   0  0  0  0  0  0  0  0  0  0  0  0
   -3.2121    1.3744   -1.7625 H   0  0  0  0  0  0  0  0  0  0  0  0
    0.1630   -1.5083   -0.3586 H   0  0  0  0  0  0  0  0  0  0  0  0
   -1.2763   -0.7802   -1.6020 H   0  0  0  0  0  0  0  0  0  0  0  0
    4.7057    2.2007   -0.5805 H   0  0  0  0  0  0  0  0  0  0  0  0
    3.4285    3.3454   -0.2193 H   0  0  0  0  0  0  0  0  0  0  0  0
    4.1837    2.4683    1.1118 H   0  0  0  0  0  0  0  0  0  0  0  0
    5.0430   -1.6713   -1.6165 H   0  0  0  0  0  0  0  0  0  0  0  0
    5.3043    0.3906    2.1675 H   0  0  0  0  0  0  0  0  0  0  0  0
    7.3215   -1.8623   -0.4870 H   0  0  0  0  0  0  0  0  0  0  0  0
   -5.2789   -2.9141    1.0478 H   0  0  0  0  0  0  0  0  0  0  0  0
   -5.8154    1.2122    2.0891 H   0  0  0  0  0  0  0  0  0  0  0  0
   -6.2850   -1.1896    2.4963 H   0  0  0  0  0  0  0  0  0  0  0  0
  1 20  1  0  0  0  0
  2 21  1  0  0  0  0
  3 15  2  0  0  0  0
  4 14  1  0  0  0  0
  4 15  1  0  0  0  0
  4 30  1  0  0  0  0
  5  6  1  0  0  0  0
  5 18  1  0  0  0  0
  5 36  1  0  0  0  0
  6 19  2  0  0  0  0
  7  8  2  0  0  0  0
  7 11  1  0  0  0  0
  7 12  1  0  0  0  0
  8 10  1  0  0  0  0
  8 17  1  0  0  0  0
  9 10  2  0  0  0  0
  9 13  1  0  0  0  0
  9 15  1  0  0  0  0
 10 25  1  0  0  0  0
 11 18  2  0  0  0  0
 11 19  1  0  0  0  0
 12 13  2  0  0  0  0
 12 26  1  0  0  0  0
 13 29  1  0  0  0  0
 14 16  1  0  0  0  0
 14 27  1  0  0  0  0
 14 28  1  0  0  0  0
 16 20  1  0  0  0  0
 16 21  2  0  0  0  0
 17 31  1  0  0  0  0
 17 32  1  0  0  0  0
 17 33  1  0  0  0  0
 18 34  1  0  0  0  0
 19 35  1  0  0  0  0
 20 22  2  0  0  0  0
 21 23  1  0  0  0  0
 22 24  1  0  0  0  0
 22 37  1  0  0  0  0
 23 24  2  0  0  0  0
 23 38  1  0  0  0  0
 24 39  1  0  0  0  0
M  END
> <PUBCHEM_COMPOUND_CID>
118662991

> <PUBCHEM_CONFORMER_RMSD>
0.8

> <PUBCHEM_CONFORMER_DIVERSEORDER>
2
42
35
18
26
13
20
1
28
30
31
36
25
23
21
43
39
11
17
41
24
4
34
27
10
38
5
14
19
3
16
33
22
29
8
40
6
32
37
7
9
15
12

> <PUBCHEM_MMFF94_PARTIAL_CHARGES>
34
1 -0.18
10 -0.15
11 -0.05
12 -0.15
13 -0.15
14 0.44
15 0.54
16 -0.14
17 0.14
18 -0.3
19 0.14
2 -0.19
20 0.18
21 0.19
22 -0.15
23 -0.15
24 -0.15
25 0.15
26 0.15
29 0.15
3 -0.57
30 0.37
34 0.15
35 0.15
36 0.27
37 0.15
38 0.15
39 0.15
4 -0.73
5 0.3
6 -0.71
7 0.05
8 -0.14
9 0.09

> <PUBCHEM_EFFECTIVE_ROTOR_COUNT>
5

> <PUBCHEM_PHARMACOPHORE_FEATURES>
7
1 3 acceptor
1 4 donor
1 5 donor
1 6 acceptor
5 5 6 11 18 19 rings
6 16 20 21 22 23 24 rings
6 7 8 9 10 12 13 rings

> <PUBCHEM_HEAVY_ATOM_COUNT>
24

> <PUBCHEM_ATOM_DEF_STEREO_COUNT>
0

> <PUBCHEM_ATOM_UDEF_STEREO_COUNT>
0

> <PUBCHEM_BOND_DEF_STEREO_COUNT>
0

> <PUBCHEM_BOND_UDEF_STEREO_COUNT>
0

> <PUBCHEM_ISOTOPIC_ATOM_COUNT>
0

> <PUBCHEM_COMPONENT_COUNT>
1

> <PUBCHEM_CACTVS_TAUTO_COUNT>
20

> <PUBCHEM_CONFORMER_ID>
0712A74F00000002

> <PUBCHEM_MMFF94_ENERGY>
57.2882

> <PUBCHEM_FEATURE_SELFOVERLAP>
35.522

> <PUBCHEM_SHAPE_FINGERPRINT>
11036077 4 18131071563273671079
11089746 13 14764338323647947322
11545043 162 17968088716240164765
12166972 35 16877950438434514156
12422481 6 18060419101650229910
12596602 18 16917347064917666218
12616971 3 18201719582523529876
13668630 136 14779554482397511875
13782708 43 16733254665470167754
14251758 9 17632583729597809684
14251764 75 10085159880006129867
14341114 176 18201441346416130436
14849402 71 18269556212307011168
15238133 3 16845581923692202296
15348495 7 17846491578014680034
15537594 2 18186516575106543314
15788980 27 17240479212989127997
15880784 105 18334862761699216177
1601671 61 10952048970610935354
16110190 28 18343587364837677589
17093844 174 18409439268030476577
17349148 13 16732987513533960692
17780758 139 18342738520655230081
17844677 252 18410858767264055564
1813 80 17458632250231524245
18222031 100 15864066602591154572
18927931 339 18259703385266700103
20028762 73 18412259575480710606
20281389 69 13039184805822848578
21150785 3 14634876357680657202
21267235 1 18408046212272346222
21403212 168 18338243670561992009
2303208 19 17821726139471661204
23402539 116 15647051525687402885
23522609 53 17824573835986403660
23559900 14 18261663848431865260
2767999 5 11527946746816587322
2838139 119 11455889148199089538
351380 3 18040714770558380234
3737641 26 18264208015433669834
4015057 19 13984960514590228012
4093350 32 17131840915384841676
465052 167 18333450929035300014
5104073 3 18272367632782548440
5924683 9 17774154742931928023
7226269 152 15482673463693644387
7495541 125 17894911837045930084
8863177 126 17968383458391809122

> <PUBCHEM_SHAPE_MULTIPOLES>
467.69
16.69
2.27
1.25
8.19
0.11
0.17
-6.12
6.29
-0.83
-0.32
-1.27
-0.25
-0.26

> <PUBCHEM_SHAPE_SELFOVERLAP>
1015.45

> <PUBCHEM_SHAPE_VOLUME>
257.3

> <PUBCHEM_COORDINATE_TYPE>
2
5
10

$$$$
90354167
  -OEChem-05102415133D

 40 42  0     0  0  0  0  0  0999 V2000
    3.4918    0.5685    2.3704 F   0  0  0  0  0  0  0  0  0  0  0  0
    6.2315   -1.7480   -1.7581 F   0  0  0  0  0  0  0  0  0  0  0  0
   -2.3927   -1.8822   -0.5054 O   0  0  0  0  0  0  0  0  0  0  0  0
    0.6704    3.1678   -0.7307 O   0  0  0  0  0  0  0  0  0  0  0  0
    1.6293    1.1361   -0.1569 N   0  0  0  0  0  0  0  0  0  0  0  0
   -6.7760   -0.6654   -0.1578 N   0  0  0  0  0  0  0  0  0  0  0  0
   -6.4515   -1.5016    0.8431 N   0  0  0  0  0  0  0  0  0  0  0  0
   -3.3295    0.2724    0.0025 C   0  0  0  0  0  0  0  0  0  0  0  0
   -0.7881    1.3898   -0.2728 C   0  0  0  0  0  0  0  0  0  0  0  0
   -2.2417   -0.5396   -0.3190 C   0  0  0  0  0  0  0  0  0  0  0  0
    3.0051    1.5728   -0.2319 C   0  0  0  0  0  0  0  0  0  0  0  0
   -0.9710    0.0192   -0.4567 C   0  0  0  0  0  0  0  0  0  0  0  0
   -4.6477   -0.2832    0.1508 C   0  0  0  0  0  0  0  0  0  0  0  0
   -3.1465    1.6430    0.1860 C   0  0  0  0  0  0  0  0  0  0  0  0
   -1.8759    2.2017    0.0487 C   0  0  0  0  0  0  0  0  0  0  0  0
    3.9660    0.4534    0.0469 C   0  0  0  0  0  0  0  0  0  0  0  0
    0.5369    1.9723   -0.4144 C   0  0  0  0  0  0  0  0  0  0  0  0
    4.1597    0.0055    1.3537 C   0  0  0  0  0  0  0  0  0  0  0  0
    4.6659   -0.1388   -1.0045 C   0  0  0  0  0  0  0  0  0  0  0  0
   -5.7310    0.0867   -0.6082 C   0  0  0  0  0  0  0  0  0  0  0  0
   -5.1502   -1.2637    1.0272 C   0  0  0  0  0  0  0  0  0  0  0  0
    5.5594   -1.1791   -0.7489 C   0  0  0  0  0  0  0  0  0  0  0  0
    5.0532   -1.0348    1.6092 C   0  0  0  0  0  0  0  0  0  0  0  0
    5.7529   -1.6272    0.5578 C   0  0  0  0  0  0  0  0  0  0  0  0
   -1.2203   -2.6253   -0.8310 C   0  0  0  0  0  0  0  0  0  0  0  0
    3.1473    2.3866    0.4893 H   0  0  0  0  0  0  0  0  0  0  0  0
    3.1705    2.0057   -1.2255 H   0  0  0  0  0  0  0  0  0  0  0  0
   -0.1147   -0.5742   -0.7499 H   0  0  0  0  0  0  0  0  0  0  0  0
   -3.9795    2.2936    0.4427 H   0  0  0  0  0  0  0  0  0  0  0  0
   -1.7536    3.2708    0.2017 H   0  0  0  0  0  0  0  0  0  0  0  0
    1.4672    0.1954    0.1874 H   0  0  0  0  0  0  0  0  0  0  0  0
    4.5237    0.1988   -2.0275 H   0  0  0  0  0  0  0  0  0  0  0  0
   -5.8569    0.7988   -1.4121 H   0  0  0  0  0  0  0  0  0  0  0  0
   -4.6260   -1.8165    1.7942 H   0  0  0  0  0  0  0  0  0  0  0  0
    5.2038   -1.3835    2.6266 H   0  0  0  0  0  0  0  0  0  0  0  0
   -7.7333   -0.6595   -0.4868 H   0  0  0  0  0  0  0  0  0  0  0  0
    6.4485   -2.4372    0.7564 H   0  0  0  0  0  0  0  0  0  0  0  0
   -0.4784   -2.5893   -0.0257 H   0  0  0  0  0  0  0  0  0  0  0  0
   -0.8071   -2.3267   -1.8005 H   0  0  0  0  0  0  0  0  0  0  0  0
   -1.5238   -3.6730   -0.9298 H   0  0  0  0  0  0  0  0  0  0  0  0
  1 18  1  0  0  0  0
  2 22  1  0  0  0  0
  3 10  1  0  0  0  0
  3 25  1  0  0  0  0
  4 17  2  0  0  0  0
  5 11  1  0  0  0  0
  5 17  1  0  0  0  0
  5 31  1  0  0  0  0
  6  7  1  0  0  0  0
  6 20  1  0  0  0  0
  6 36  1  0  0  0  0
  7 21  2  0  0  0  0
  8 10  2  0  0  0  0
  8 13  1  0  0  0  0
  8 14  1  0  0  0  0
  9 12  2  0  0  0  0
  9 15  1  0  0  0  0
  9 17  1  0  0  0  0
 10 12  1  0  0  0  0
 11 16  1  0  0  0  0
 11 26  1  0  0  0  0
 11 27  1  0  0  0  0
 12 28  1  0  0  0  0
 13 20  2  0  0  0  0
 13 21  1  0  0  0  0
 14 15  2  0  0  0  0
 14 29  1  0  0  0  0
 15 30  1  0  0  0  0
 16 18  2  0  0  0  0
 16 19  1  0  0  0  0
 18 23  1  0  0  0  0
 19 22  2  0  0  0  0
 19 32  1  0  0  0  0
 20 33  1  0  0  0  0
 21 34  1  0  0  0  0
 22 24  1  0  0  0  0
 23 24  2  0  0  0  0
 23 35  1  0  0  0  0
 24 37  1  0  0  0  0
 25 38  1  0  0  0  0
 25 39  1  0  0  0  0
 25 40  1  0  0  0  0
M  END
> <PUBCHEM_COMPOUND_CID>
90354167

> <PUBCHEM_CONFORMER_RMSD>
0.8

> <PUBCHEM_CONFORMER_DIVERSEORDER>
10
38
60
11
63
68
40
75
46
49
58
62
18
69
26
36
47
61
16
74
57
5
12
64
54
44
43
20
29
77
72
56
66
41
73
23
65
13
2
76
34
33
59
70
30
35
32
17
45
71
8
39
48
15
50
67
27
1
25
53
31
4
14
52
42
28
21
37
6
7
22
55
51
9
19
3
24

> <PUBCHEM_MMFF94_PARTIAL_CHARGES>
35
1 -0.19
10 0.08
11 0.44
12 -0.15
13 -0.05
14 -0.15
15 -0.15
16 -0.14
17 0.54
18 0.19
19 -0.15
2 -0.19
20 -0.3
21 0.14
22 0.19
23 -0.15
24 -0.15
25 0.28
28 0.15
29 0.15
3 -0.36
30 0.15
31 0.37
32 0.15
33 0.15
34 0.15
35 0.15
36 0.27
37 0.15
4 -0.57
5 -0.73
6 0.3
7 -0.71
8 0.05
9 0.09

> <PUBCHEM_EFFECTIVE_ROTOR_COUNT>
6

> <PUBCHEM_PHARMACOPHORE_FEATURES>
8
1 3 acceptor
1 4 acceptor
1 5 donor
1 6 donor
1 7 acceptor
5 6 7 13 20 21 rings
6 16 18 19 22 23 24 rings
6 8 9 10 12 14 15 rings

> <PUBCHEM_HEAVY_ATOM_COUNT>
25

> <PUBCHEM_ATOM_DEF_STEREO_COUNT>
0

> <PUBCHEM_ATOM_UDEF_STEREO_COUNT>
0

> <PUBCHEM_BOND_DEF_STEREO_COUNT>
0

> <PUBCHEM_BOND_UDEF_STEREO_COUNT>
0

> <PUBCHEM_ISOTOPIC_ATOM_COUNT>
0

> <PUBCHEM_COMPONENT_COUNT>
1

> <PUBCHEM_CACTVS_TAUTO_COUNT>
7

> <PUBCHEM_CONFORMER_ID>
0562B1F70000000A

> <PUBCHEM_MMFF94_ENERGY>
66.7965

> <PUBCHEM_FEATURE_SELFOVERLAP>
40.597

> <PUBCHEM_SHAPE_FINGERPRINT>
10692045 39 17346891034936580607
11545043 162 18059289860116704768
117089 54 18120379761644607794
11991303 11 16808122499269976421
12422481 6 17918277571279583599
12553582 1 18334845135090006060
12633257 1 16630235991871587960
13402501 40 18130230359368538502
13533116 47 18201157749420133880
13551218 46 18342176669886648703
13673619 4 18060425673493459204
13685833 64 18411139134560755136
13782708 43 17846495915678415287
13862211 1 18412823621056032447
14216079 64 18411136927032130015
14955137 171 18410856598806178993
15183329 4 17458337512475034789
1813 80 17676485055889854284
18222031 100 18259984868617482932
1979834 28 17846506932427973718
20403669 9 18411982447147137710
21150785 3 13045947941048312657
21267235 1 18410019831312177173
21682296 61 18412833477869008527
22223350 30 17771622631951159715
23016692 55 18186522090070930132
23522609 53 17972351505631400477
23559900 14 18270118044835367773
23569917 315 18130230458501615327
3004659 81 18113058242346975028
312425 54 16773794813783476071
3383291 50 18411135853090554331
351380 3 18186518791736364130
4340502 62 14476970008073989853
465052 167 18335425694008446845
5104073 3 18056767757158205451
54039377 194 18041841702344505674
543368 44 10665225965153181247
559249 180 18334571296713223909
56633871 153 18341890809701213375
59682541 52 14129326378247711224
59755656 215 18410292476095116471
6138700 20 18408606937897009823
7970288 3 18187641358849344946
86090 222 17202506441164285654
8863177 126 17823428273818961003
960060 61 16370725924599973552

> <PUBCHEM_SHAPE_MULTIPOLES>
473.26
16.81
2.55
1.28
0.36
0.63
-0.4
-10.15
-1.4
0.1
0.49
-1.89
-0.38
0.53

> <PUBCHEM_SHAPE_SELFOVERLAP>
1035.434

> <PUBCHEM_SHAPE_VOLUME>
257.6

> <PUBCHEM_COORDINATE_TYPE>
2
5
10

$$$$
90354148
  -OEChem-05102415133D

 43 45  0     0  0  0  0  0  0999 V2000
    3.8212    1.8999    0.1712 O   0  0  0  0  0  0  0  0  0  0  0  0
   -1.0488   -0.6318   -2.0219 O   0  0  0  0  0  0  0  0  0  0  0  0
   -6.3323   -1.4650   -1.3062 O   0  0  0  0  0  0  0  0  0  0  0  0
   -7.1758   -1.7977    0.7782 O   0  0  0  0  0  0  0  0  0  0  0  0
   -1.0964    1.3207   -0.7719 N   0  0  0  0  0  0  0  0  0  0  0  0
    6.6967   -1.6970    1.0921 N   0  0  0  0  0  0  0  0  0  0  0  0
    7.1725   -0.5239    0.6407 N   0  0  0  0  0  0  0  0  0  0  0  0
    3.5645   -0.4720   -0.1213 C   0  0  0  0  0  0  0  0  0  0  0  0
    0.9155   -0.0436   -0.8844 C   0  0  0  0  0  0  0  0  0  0  0  0
   -2.4710    1.6670   -1.0540 C   0  0  0  0  0  0  0  0  0  0  0  0
    3.0505    0.8243   -0.1589 C   0  0  0  0  0  0  0  0  0  0  0  0
   -3.4167    1.0773   -0.0480 C   0  0  0  0  0  0  0  0  0  0  0  0
    1.7260    1.0384   -0.5405 C   0  0  0  0  0  0  0  0  0  0  0  0
    4.9266   -0.7155    0.2709 C   0  0  0  0  0  0  0  0  0  0  0  0
    2.7541   -1.5540   -0.4655 C   0  0  0  0  0  0  0  0  0  0  0  0
    1.4296   -1.3398   -0.8468 C   0  0  0  0  0  0  0  0  0  0  0  0
   -0.4659    0.1792   -1.2804 C   0  0  0  0  0  0  0  0  0  0  0  0
   -4.4220    0.2039   -0.4633 C   0  0  0  0  0  0  0  0  0  0  0  0
   -3.2894    1.4023    1.3027 C   0  0  0  0  0  0  0  0  0  0  0  0
   -5.2998   -0.3445    0.4718 C   0  0  0  0  0  0  0  0  0  0  0  0
    5.3572   -1.8610    0.8947 C   0  0  0  0  0  0  0  0  0  0  0  0
    6.0866    0.0714    0.1403 C   0  0  0  0  0  0  0  0  0  0  0  0
   -4.1670    0.8535    2.2378 C   0  0  0  0  0  0  0  0  0  0  0  0
   -5.1724   -0.0197    1.8224 C   0  0  0  0  0  0  0  0  0  0  0  0
   -6.3474   -1.2557    0.0390 C   0  0  0  0  0  0  0  0  0  0  0  0
    3.2039    3.1831    0.1011 C   0  0  0  0  0  0  0  0  0  0  0  0
   -2.7152    1.3386   -2.0705 H   0  0  0  0  0  0  0  0  0  0  0  0
   -2.5497    2.7597   -1.0347 H   0  0  0  0  0  0  0  0  0  0  0  0
    1.3091    2.0337   -0.6238 H   0  0  0  0  0  0  0  0  0  0  0  0
    3.1229   -2.5766   -0.4611 H   0  0  0  0  0  0  0  0  0  0  0  0
    0.8139   -2.1963   -1.1093 H   0  0  0  0  0  0  0  0  0  0  0  0
   -0.6151    1.9138   -0.1044 H   0  0  0  0  0  0  0  0  0  0  0  0
   -4.4971   -0.0325   -1.5215 H   0  0  0  0  0  0  0  0  0  0  0  0
   -2.5139    2.0848    1.6403 H   0  0  0  0  0  0  0  0  0  0  0  0
    4.8558   -2.7613    1.2224 H   0  0  0  0  0  0  0  0  0  0  0  0
    6.2058    1.0481   -0.3067 H   0  0  0  0  0  0  0  0  0  0  0  0
   -4.0683    1.1073    3.2892 H   0  0  0  0  0  0  0  0  0  0  0  0
   -5.8461   -0.4361    2.5667 H   0  0  0  0  0  0  0  0  0  0  0  0
    7.3442   -2.3415    1.5282 H   0  0  0  0  0  0  0  0  0  0  0  0
    2.3719    3.2741    0.8080 H   0  0  0  0  0  0  0  0  0  0  0  0
    2.9176    3.4400   -0.9246 H   0  0  0  0  0  0  0  0  0  0  0  0
    3.9569    3.9167    0.4084 H   0  0  0  0  0  0  0  0  0  0  0  0
   -7.0425   -2.0804   -1.5877 H   0  0  0  0  0  0  0  0  0  0  0  0
  1 11  1  0  0  0  0
  1 26  1  0  0  0  0
  2 17  2  0  0  0  0
  3 25  1  0  0  0  0
  3 43  1  0  0  0  0
  4 25  2  0  0  0  0
  5 10  1  0  0  0  0
  5 17  1  0  0  0  0
  5 32  1  0  0  0  0
  6  7  1  0  0  0  0
  6 21  1  0  0  0  0
  6 39  1  0  0  0  0
  7 22  2  0  0  0  0
  8 11  2  0  0  0  0
  8 14  1  0  0  0  0
  8 15  1  0  0  0  0
  9 13  2  0  0  0  0
  9 16  1  0  0  0  0
  9 17  1  0  0  0  0
 10 12  1  0  0  0  0
 10 27  1  0  0  0  0
 10 28  1  0  0  0  0
 11 13  1  0  0  0  0
 12 18  2  0  0  0  0
 12 19  1  0  0  0  0
 13 29  1  0  0  0  0
 14 21  2  0  0  0  0
 14 22  1  0  0  0  0
 15 16  2  0  0  0  0
 15 30  1  0  0  0  0
 16 31  1  0  0  0  0
 18 20  1  0  0  0  0
 18 33  1  0  0  0  0
 19 23  2  0  0  0  0
 19 34  1  0  0  0  0
 20 24  2  0  0  0  0
 20 25  1  0  0  0  0
 21 35  1  0  0  0  0
 22 36  1  0  0  0  0
 23 24  1  0  0  0  0
 23 37  1  0  0  0  0
 24 38  1  0  0  0  0
 26 40  1  0  0  0  0
 26 41  1  0  0  0  0
 26 42  1  0  0  0  0
M  END
> <PUBCHEM_COMPOUND_CID>
90354148

> <PUBCHEM_CONFORMER_RMSD>
0.8

> <PUBCHEM_CONFORMER_DIVERSEORDER>
10
29
89
35
72
2
88
79
60
19
52
31
26
91
22
73
85
15
42
17
66
55
61
50
27
24
87
30
70
81
47
69
5
68
40
75
59
6
25
83
3
56
86
12
84
65
80
14
54
32
34
36
28
76
7
94
51
43
38
44
13
39
48
20
11
74
9
77
16
46
41
71
45
93
33
23
49
4
21
67
78
63
8
92
53
62
37
90
82
58
18
1
64
57

> <PUBCHEM_MMFF94_PARTIAL_CHARGES>
38
1 -0.36
10 0.44
11 0.08
12 -0.14
13 -0.15
14 -0.05
15 -0.15
16 -0.15
17 0.54
18 -0.15
19 -0.15
2 -0.57
20 0.09
21 -0.3
22 0.14
23 -0.15
24 -0.15
25 0.63
26 0.28
29 0.15
3 -0.65
30 0.15
31 0.15
32 0.37
33 0.15
34 0.15
35 0.15
36 0.15
37 0.15
38 0.15
39 0.27
4 -0.57
43 0.5
5 -0.73
6 0.3
7 -0.71
8 0.05
9 0.09

> <PUBCHEM_EFFECTIVE_ROTOR_COUNT>
7

> <PUBCHEM_PHARMACOPHORE_FEATURES>
11
1 1 acceptor
1 2 acceptor
1 3 acceptor
1 4 acceptor
1 5 donor
1 6 donor
1 7 acceptor
3 3 4 25 anion
5 6 7 14 21 22 rings
6 12 18 19 20 23 24 rings
6 8 9 11 13 15 16 rings

> <PUBCHEM_HEAVY_ATOM_COUNT>
26

> <PUBCHEM_ATOM_DEF_STEREO_COUNT>
0

> <PUBCHEM_ATOM_UDEF_STEREO_COUNT>
0

> <PUBCHEM_BOND_DEF_STEREO_COUNT>
0

> <PUBCHEM_BOND_UDEF_STEREO_COUNT>
0

> <PUBCHEM_ISOTOPIC_ATOM_COUNT>
0

> <PUBCHEM_COMPONENT_COUNT>
1

> <PUBCHEM_CACTVS_TAUTO_COUNT>
7

> <PUBCHEM_CONFORMER_ID>
0562B1E40000000A

> <PUBCHEM_MMFF94_ENERGY>
77.7482

> <PUBCHEM_FEATURE_SELFOVERLAP>
55.881

> <PUBCHEM_SHAPE_FINGERPRINT>
10 15 17346877862134376458
106641 1 18411414030127551586
11069576 57 11098117982270633712
11315181 36 16226055483025295677
11545043 162 17676204632948028724
11646440 116 15626224623937361690
11796584 16 14418139534190579913
12166972 35 18408887360148264729
12403259 118 17917436389139787745
12596602 18 18129944481527941082
12616971 3 17917706928802520509
12633257 1 18411990151875296602
128238 76 17631451323353538479
13583140 156 18262228911683075085
13668630 136 15430042062812542971
13782708 43 17822008658362964050
14251752 14 12829206680851821035
14251764 18 18342175587876409526
14341114 328 17632028515455611521
14848160 23 17894911858599686247
14849402 71 17917423302691143400
14950920 106 18411429418452379449
15119646 104 8430327822603751452
15188451 53 18333732420922705087
15238133 3 16917073256710539904
15475509 8 17703525311772641860
15510800 12 17240780475260460835
15880784 105 18408044026682716385
18222031 100 16081088186222686148
19377110 9 17703791422843836015
20028762 73 18413107264301047110
20105231 36 18339079269572824466
21267235 1 18339078186971137662
21424621 283 13542473059276615615
21623969 137 18187927232078223090
21637258 2 16660640722811565656
21756936 100 15841545254601272845
22393880 68 13046239315397392513
23389318 12 17603592954307092990
23522609 53 18045534991297394836
23559900 14 16298679381476151029
25147074 1 18058721545996765028
2838139 119 12319449957542221114
3004659 81 13767930143413435951
3009799 131 11674885493901237750
3663271 9 18202003188052017482
392239 28 18342748407606746065
44062 13 14563106883192213065
465052 167 18335700516909069046
5104073 3 18058994190921556962
5718773 13 17968382346691884467
59682541 35 15697998561830658911
7495541 125 18113621171089427324
960060 61 11530482250552669384
9689198 14 11671796979151425475

> <PUBCHEM_SHAPE_MULTIPOLES>
496.65
19.13
2.21
1.52
2.24
0.93
-0.28
-9.49
-7.26
-1.19
-0.1
1.8
-0.03
-1.1

> <PUBCHEM_SHAPE_SELFOVERLAP>
1085.95

> <PUBCHEM_SHAPE_VOLUME>
269.5

> <PUBCHEM_COORDINATE_TYPE>
2
5
10

$$$$
85470578
  -OEChem-05102415133D

 40 42  0     0  0  0  0  0  0999 V2000
   -3.5746   -0.9799   -2.5680 Cl  0  0  0  0  0  0  0  0  0  0  0  0
   -6.6129   -0.3879    2.8461 Cl  0  0  0  0  0  0  0  0  0  0  0  0
    4.1170    1.8043    0.5000 O   0  0  0  0  0  0  0  0  0  0  0  0
   -0.6482    2.7708   -0.9564 O   0  0  0  0  0  0  0  0  0  0  0  0
   -1.7411    0.8079   -0.3824 N   0  0  0  0  0  0  0  0  0  0  0  0
    6.0324   -2.4491   -0.0454 N   0  0  0  0  0  0  0  0  0  0  0  0
    6.4976   -1.5896    0.8772 N   0  0  0  0  0  0  0  0  0  0  0  0
    3.1511   -0.3323   -0.0288 C   0  0  0  0  0  0  0  0  0  0  0  0
    0.6894    0.9261   -0.4030 C   0  0  0  0  0  0  0  0  0  0  0  0
    3.0391    1.0471    0.1467 C   0  0  0  0  0  0  0  0  0  0  0  0
   -3.0860    1.3077   -0.5561 C   0  0  0  0  0  0  0  0  0  0  0  0
    1.8082    1.6762   -0.0404 C   0  0  0  0  0  0  0  0  0  0  0  0
    4.4100   -1.0013    0.1607 C   0  0  0  0  0  0  0  0  0  0  0  0
    2.0323   -1.0823   -0.3917 C   0  0  0  0  0  0  0  0  0  0  0  0
    0.8015   -0.4532   -0.5786 C   0  0  0  0  0  0  0  0  0  0  0  0
   -4.1186    0.2741   -0.2106 C   0  0  0  0  0  0  0  0  0  0  0  0
   -0.5943    1.5815   -0.5964 C   0  0  0  0  0  0  0  0  0  0  0  0
   -4.4015   -0.7920   -1.0647 C   0  0  0  0  0  0  0  0  0  0  0  0
   -4.8022    0.3992    0.9989 C   0  0  0  0  0  0  0  0  0  0  0  0
    4.7862   -2.1413   -0.5066 C   0  0  0  0  0  0  0  0  0  0  0  0
    5.5021   -0.7075    0.9990 C   0  0  0  0  0  0  0  0  0  0  0  0
   -5.7684   -0.5420    1.3545 C   0  0  0  0  0  0  0  0  0  0  0  0
   -5.3678   -1.7332   -0.7091 C   0  0  0  0  0  0  0  0  0  0  0  0
   -6.0511   -1.6082    0.5005 C   0  0  0  0  0  0  0  0  0  0  0  0
    3.8999    3.2049    0.6548 C   0  0  0  0  0  0  0  0  0  0  0  0
   -3.2026    1.6639   -1.5862 H   0  0  0  0  0  0  0  0  0  0  0  0
   -3.1899    2.1978    0.0767 H   0  0  0  0  0  0  0  0  0  0  0  0
    1.6618    2.7430    0.0891 H   0  0  0  0  0  0  0  0  0  0  0  0
    2.0789   -2.1596   -0.5297 H   0  0  0  0  0  0  0  0  0  0  0  0
   -0.0371   -1.0704   -0.8878 H   0  0  0  0  0  0  0  0  0  0  0  0
   -1.6441   -0.1385   -0.0290 H   0  0  0  0  0  0  0  0  0  0  0  0
   -4.5823    1.2282    1.6678 H   0  0  0  0  0  0  0  0  0  0  0  0
    4.3077   -2.7541   -1.2581 H   0  0  0  0  0  0  0  0  0  0  0  0
    5.6250    0.0993    1.7076 H   0  0  0  0  0  0  0  0  0  0  0  0
   -5.5995   -2.5698   -1.3634 H   0  0  0  0  0  0  0  0  0  0  0  0
    6.6213   -3.2265   -0.3169 H   0  0  0  0  0  0  0  0  0  0  0  0
   -6.8015   -2.3489    0.7646 H   0  0  0  0  0  0  0  0  0  0  0  0
    3.2048    3.4195    1.4738 H   0  0  0  0  0  0  0  0  0  0  0  0
    3.5993    3.6757   -0.2875 H   0  0  0  0  0  0  0  0  0  0  0  0
    4.8614    3.6485    0.9348 H   0  0  0  0  0  0  0  0  0  0  0  0
  1 18  1  0  0  0  0
  2 22  1  0  0  0  0
  3 10  1  0  0  0  0
  3 25  1  0  0  0  0
  4 17  2  0  0  0  0
  5 11  1  0  0  0  0
  5 17  1  0  0  0  0
  5 31  1  0  0  0  0
  6  7  1  0  0  0  0
  6 20  1  0  0  0  0
  6 36  1  0  0  0  0
  7 21  2  0  0  0  0
  8 10  2  0  0  0  0
  8 13  1  0  0  0  0
  8 14  1  0  0  0  0
  9 12  2  0  0  0  0
  9 15  1  0  0  0  0
  9 17  1  0  0  0  0
 10 12  1  0  0  0  0
 11 16  1  0  0  0  0
 11 26  1  0  0  0  0
 11 27  1  0  0  0  0
 12 28  1  0  0  0  0
 13 20  2  0  0  0  0
 13 21  1  0  0  0  0
 14 15  2  0  0  0  0
 14 29  1  0  0  0  0
 15 30  1  0  0  0  0
 16 18  2  0  0  0  0
 16 19  1  0  0  0  0
 18 23  1  0  0  0  0
 19 22  2  0  0  0  0
 19 32  1  0  0  0  0
 20 33  1  0  0  0  0
 21 34  1  0  0  0  0
 22 24  1  0  0  0  0
 23 24  2  0  0  0  0
 23 35  1  0  0  0  0
 24 37  1  0  0  0  0
 25 38  1  0  0  0  0
 25 39  1  0  0  0  0
 25 40  1  0  0  0  0
M  END
> <PUBCHEM_COMPOUND_CID>
85470578

> <PUBCHEM_CONFORMER_RMSD>
0.8

> <PUBCHEM_CONFORMER_DIVERSEORDER>
7
60
70
64
1
3
57
73
78
55
82
27
69
24
49
77
67
63
21
61
80
59
52
11
84
65
18
79
10
47
2
62
42
26
85
34
19
46
40
36
54
50
66
86
75
43
41
16
31
45
58
68
4
22
48
53
17
83
33
44
38
56
37
8
39
32
29
81
23
72
76
35
71
20
5
25
14
9
13
74
15
51
6
30
12
28

> <PUBCHEM_MMFF94_PARTIAL_CHARGES>
35
1 -0.18
10 0.08
11 0.44
12 -0.15
13 -0.05
14 -0.15
15 -0.15
16 -0.14
17 0.54
18 0.18
19 -0.15
2 -0.18
20 -0.3
21 0.14
22 0.18
23 -0.15
24 -0.15
25 0.28
28 0.15
29 0.15
3 -0.36
30 0.15
31 0.37
32 0.15
33 0.15
34 0.15
35 0.15
36 0.27
37 0.15
4 -0.57
5 -0.73
6 0.3
7 -0.71
8 0.05
9 0.09

> <PUBCHEM_EFFECTIVE_ROTOR_COUNT>
6

> <PUBCHEM_PHARMACOPHORE_FEATURES>
8
1 3 acceptor
1 4 acceptor
1 5 donor
1 6 donor
1 7 acceptor
5 6 7 13 20 21 rings
6 16 18 19 22 23 24 rings
6 8 9 10 12 14 15 rings

> <PUBCHEM_HEAVY_ATOM_COUNT>
25

> <PUBCHEM_ATOM_DEF_STEREO_COUNT>
0

> <PUBCHEM_ATOM_UDEF_STEREO_COUNT>
0

> <PUBCHEM_BOND_DEF_STEREO_COUNT>
0

> <PUBCHEM_BOND_UDEF_STEREO_COUNT>
0

> <PUBCHEM_ISOTOPIC_ATOM_COUNT>
0

> <PUBCHEM_COMPONENT_COUNT>
1

> <PUBCHEM_CACTVS_TAUTO_COUNT>
9

> <PUBCHEM_CONFORMER_ID>
05182D7200000007

> <PUBCHEM_MMFF94_ENERGY>
69.6483

> <PUBCHEM_FEATURE_SELFOVERLAP>
40.597

> <PUBCHEM_SHAPE_FINGERPRINT>
10912923 1 17632012061082544189
11545043 162 18187359892045752613
11578080 2 16986288733961447938
12107183 9 18128827339439443977
12166972 35 16950291705886878207
12403259 118 15051727625524500649
12422481 6 17917993836886370191
12596602 18 18059300958839237723
12616971 3 18130785672278795773
12633257 1 16988842800319011013
13103583 49 17632297887019179669
13533116 47 18411985792800333712
13540713 4 18190720012861335836
13782708 43 17895186659134272802
13955234 65 18341606079767040136
14123256 34 18334863779501236178
14341114 328 17418100953001949377
14849402 71 17774150344780084704
14950920 106 17346309436540667131
15064981 113 14274549895904947219
15238133 3 16200155399784675704
15250474 111 17703214234863280975
15475509 35 17531232934631460432
15475509 84 17845941731759248080
15510800 12 17313957462746665363
15880784 105 18412828005969683057
16110190 28 18202003239813242303
17780758 139 18060417989559382065
17844677 252 18411982451252662021
18222031 100 16660360385452770564
18927931 339 18260267409072747695
19377110 9 17845929735946653504
19841028 212 18266169712425366107
20028762 73 18343860022152565366
20281389 69 11743831465262838398
21049683 271 18335707144461124444
21065198 48 17988926721340437837
21120745 212 12240440099748041460
21150785 3 14273746161030311842
21267235 1 18341332189987066126
21307412 95 15792867797062526171
21403212 168 18200603493640445587
2260408 40 17060347275615326670
2303208 19 17749106703534407955
23522609 53 18120970297835198764
23559900 14 18264191561271430356
25122255 55 17822296807571121035
312425 54 17847062177363195923
34797466 226 16298672783989464589
3663271 9 17917995026850578859
3737641 26 18197218044507439302
4093350 32 16630248095902103552
465052 167 18411139113370904902
5104073 3 17988923422409896435
5758199 1 18057321910797909160
636775 8 18124602990782228022
6431902 208 18260544485628829291
7495541 125 18408882911226290748
7970288 3 18334857255710040907
8863177 126 18187090588890256155
999808 66 18260834769467543011

> <PUBCHEM_SHAPE_MULTIPOLES>
491.55
18.13
2.68
1.66
4
1.12
-0.33
-10.44
-8.73
-3.89
0.24
3.79
-0.35
-0.28

> <PUBCHEM_SHAPE_SELFOVERLAP>
1052.523

> <PUBCHEM_SHAPE_VOLUME>
274

> <PUBCHEM_COORDINATE_TYPE>
2
5
10

$$$$
118663010
  -OEChem-05102415133D

 43 45  0     0  0  0  0  0  0999 V2000
   -3.1735    2.8125    0.5969 F   0  0  0  0  0  0  0  0  0  0  0  0
   -0.9435   -1.8115    1.1412 O   0  0  0  0  0  0  0  0  0  0  0  0
   -5.7703   -1.7196   -1.0972 O   0  0  0  0  0  0  0  0  0  0  0  0
   -1.2144    0.4632    1.5004 N   0  0  0  0  0  0  0  0  0  0  0  0
    6.8884    1.1447   -0.6249 N   0  0  0  0  0  0  0  0  0  0  0  0
    6.9291    0.1592   -1.5377 N   0  0  0  0  0  0  0  0  0  0  0  0
    3.5445    0.0013   -0.0807 C   0  0  0  0  0  0  0  0  0  0  0  0
    3.1719   -1.2298    0.4595 C   0  0  0  0  0  0  0  0  0  0  0  0
    0.9040   -0.4343    0.7075 C   0  0  0  0  0  0  0  0  0  0  0  0
    1.8517   -1.4475    0.8536 C   0  0  0  0  0  0  0  0  0  0  0  0
   -2.5849    0.3992    1.9548 C   0  0  0  0  0  0  0  0  0  0  0  0
    2.5969    1.0145   -0.2264 C   0  0  0  0  0  0  0  0  0  0  0  0
    4.8994    0.2517   -0.4939 C   0  0  0  0  0  0  0  0  0  0  0  0
    1.2767    0.7967    0.1674 C   0  0  0  0  0  0  0  0  0  0  0  0
   -3.5590    0.4803    0.8152 C   0  0  0  0  0  0  0  0  0  0  0  0
   -0.4727   -0.6606    1.1182 C   0  0  0  0  0  0  0  0  0  0  0  0
    4.1598   -2.3391    0.6321 C   0  0  0  0  0  0  0  0  0  0  0  0
   -4.2198   -0.6697    0.3833 C   0  0  0  0  0  0  0  0  0  0  0  0
   -3.8037    1.7023    0.1885 C   0  0  0  0  0  0  0  0  0  0  0  0
    5.6949    1.2423    0.0281 C   0  0  0  0  0  0  0  0  0  0  0  0
    5.7113   -0.3828   -1.4532 C   0  0  0  0  0  0  0  0  0  0  0  0
   -5.1254   -0.5977   -0.6753 C   0  0  0  0  0  0  0  0  0  0  0  0
   -4.7092    1.7742   -0.8701 C   0  0  0  0  0  0  0  0  0  0  0  0
   -5.3698    0.6242   -1.3022 C   0  0  0  0  0  0  0  0  0  0  0  0
   -6.6823   -1.5737   -2.1849 C   0  0  0  0  0  0  0  0  0  0  0  0
    1.5646   -2.4072    1.2771 H   0  0  0  0  0  0  0  0  0  0  0  0
   -2.7467    1.2331    2.6473 H   0  0  0  0  0  0  0  0  0  0  0  0
   -2.7283   -0.5240    2.5282 H   0  0  0  0  0  0  0  0  0  0  0  0
    2.8632    1.9778   -0.6556 H   0  0  0  0  0  0  0  0  0  0  0  0
    0.5652    1.6010    0.0050 H   0  0  0  0  0  0  0  0  0  0  0  0
   -0.7792    1.3792    1.5187 H   0  0  0  0  0  0  0  0  0  0  0  0
    4.4137   -2.7825   -0.3357 H   0  0  0  0  0  0  0  0  0  0  0  0
    3.7560   -3.1405    1.2615 H   0  0  0  0  0  0  0  0  0  0  0  0
    5.0702   -1.9882    1.1293 H   0  0  0  0  0  0  0  0  0  0  0  0
   -4.0341   -1.6264    0.8654 H   0  0  0  0  0  0  0  0  0  0  0  0
    5.5305    1.9930    0.7887 H   0  0  0  0  0  0  0  0  0  0  0  0
    5.4704   -1.2148   -2.1000 H   0  0  0  0  0  0  0  0  0  0  0  0
   -4.8987    2.7263   -1.3571 H   0  0  0  0  0  0  0  0  0  0  0  0
   -6.0596    0.7517   -2.1295 H   0  0  0  0  0  0  0  0  0  0  0  0
    7.7149    1.7154   -0.4978 H   0  0  0  0  0  0  0  0  0  0  0  0
   -7.1039   -2.5636   -2.3881 H   0  0  0  0  0  0  0  0  0  0  0  0
   -6.1711   -1.2506   -3.0981 H   0  0  0  0  0  0  0  0  0  0  0  0
   -7.5193   -0.9175   -1.9231 H   0  0  0  0  0  0  0  0  0  0  0  0
  1 19  1  0  0  0  0
  2 16  2  0  0  0  0
  3 22  1  0  0  0  0
  3 25  1  0  0  0  0
  4 11  1  0  0  0  0
  4 16  1  0  0  0  0
  4 31  1  0  0  0  0
  5  6  1  0  0  0  0
  5 20  1  0  0  0  0
  5 40  1  0  0  0  0
  6 21  2  0  0  0  0
  7  8  2  0  0  0  0
  7 12  1  0  0  0  0
  7 13  1  0  0  0  0
  8 10  1  0  0  0  0
  8 17  1  0  0  0  0
  9 10  2  0  0  0  0
  9 14  1  0  0  0  0
  9 16  1  0  0  0  0
 10 26  1  0  0  0  0
 11 15  1  0  0  0  0
 11 27  1  0  0  0  0
 11 28  1  0  0  0  0
 12 14  2  0  0  0  0
 12 29  1  0  0  0  0
 13 20  2  0  0  0  0
 13 21  1  0  0  0  0
 14 30  1  0  0  0  0
 15 18  1  0  0  0  0
 15 19  2  0  0  0  0
 17 32  1  0  0  0  0
 17 33  1  0  0  0  0
 17 34  1  0  0  0  0
 18 22  2  0  0  0  0
 18 35  1  0  0  0  0
 19 23  1  0  0  0  0
 20 36  1  0  0  0  0
 21 37  1  0  0  0  0
 22 24  1  0  0  0  0
 23 24  2  0  0  0  0
 23 38  1  0  0  0  0
 24 39  1  0  0  0  0
 25 41  1  0  0  0  0
 25 42  1  0  0  0  0
 25 43  1  0  0  0  0
M  END
> <PUBCHEM_COMPOUND_CID>
118663010

> <PUBCHEM_CONFORMER_RMSD>
0.8

> <PUBCHEM_CONFORMER_DIVERSEORDER>
2
67
55
45
18
8
50
56
71
17
62
37
63
14
24
68
72
54
49
76
53
32
21
19
69
11
65
13
22
77
30
73
64
51
74
27
60
41
38
66
35
75
12
1
4
52
43
58
7
9
25
39
28
5
33
16
40
42
26
70
23
46
59
20
29
61
10
6
34
36
57
3
31
15
47
48
44

> <PUBCHEM_MMFF94_PARTIAL_CHARGES>
35
1 -0.19
10 -0.15
11 0.44
12 -0.15
13 -0.05
14 -0.15
15 -0.14
16 0.54
17 0.14
18 -0.15
19 0.19
2 -0.57
20 -0.3
21 0.14
22 0.08
23 -0.15
24 -0.15
25 0.28
26 0.15
29 0.15
3 -0.36
30 0.15
31 0.37
35 0.15
36 0.15
37 0.15
38 0.15
39 0.15
4 -0.73
40 0.27
5 0.3
6 -0.71
7 0.05
8 -0.14
9 0.09

> <PUBCHEM_EFFECTIVE_ROTOR_COUNT>
6

> <PUBCHEM_PHARMACOPHORE_FEATURES>
8
1 2 acceptor
1 3 acceptor
1 4 donor
1 5 donor
1 6 acceptor
5 5 6 13 20 21 rings
6 15 18 19 22 23 24 rings
6 7 8 9 10 12 14 rings

> <PUBCHEM_HEAVY_ATOM_COUNT>
25

> <PUBCHEM_ATOM_DEF_STEREO_COUNT>
0

> <PUBCHEM_ATOM_UDEF_STEREO_COUNT>
0

> <PUBCHEM_BOND_DEF_STEREO_COUNT>
0

> <PUBCHEM_BOND_UDEF_STEREO_COUNT>
0

> <PUBCHEM_ISOTOPIC_ATOM_COUNT>
0

> <PUBCHEM_COMPONENT_COUNT>
1

> <PUBCHEM_CACTVS_TAUTO_COUNT>
20

> <PUBCHEM_CONFORMER_ID>
0712A76200000002

> <PUBCHEM_MMFF94_ENERGY>
69.0458

> <PUBCHEM_FEATURE_SELFOVERLAP>
40.597

> <PUBCHEM_SHAPE_FINGERPRINT>
10554248 39 17312819364895265814
10595046 47 18410289181759851931
10693767 8 18200601272905977398
11036077 4 9871743607917852717
11089746 13 16877942780281042764
12166972 35 16128658574347503936
12422481 6 14274028791738471342
13668630 136 17346884463499084662
13673619 4 14620794911978880939
13690498 29 17988917886803940493
13782708 43 15482398543506680644
13941219 33 10303826370953270101
14251732 14 17561361798677712147
14251757 5 17987510571522818359
14251764 30 16200145543388710319
14528608 73 18410013221858597072
14931854 50 18335409172013155399
15003188 100 18338234976841952260
15064986 266 18334300825943723387
15142383 8 13118272690605050038
15183329 4 18411418397413309966
15238133 3 12396301443710104862
15348495 7 11025811915493754492
1577012 14 18334572417599071611
16994733 274 15214124291094405357
17349148 13 15195288620773684080
17780758 139 9655575206279956911
1813 80 14333404580038177297
18643901 69 17847062208150147143
18681886 176 17846776343147075952
18927931 339 15195567879784945585
19958102 18 18202569470763235414
20281389 69 14851608799296394740
21150785 3 18131353037885819630
21315763 76 17458064880413915652
21403212 168 10951781785554693583
22393880 68 18343575231666219577
2303208 19 14405182850688183058
23402539 116 16988292992548869152
23516275 100 18194954365500925000
23522609 53 11743274120374082154
23559900 14 18339922726689390208
2748736 6 17603307063924497972
2838139 119 17749108889477959820
312425 54 8214144036530489476
4169191 19 16951142767280272908
465052 167 12967134891882537796
7226269 152 14923944552448763340
7495541 125 13830130568917386266
8863177 126 13614226105857733060
999808 66 15051736412716144413

> <PUBCHEM_SHAPE_MULTIPOLES>
480.53
18.57
2.05
1.61
4.81
0.01
-0.26
0.87
-11.91
-1.06
0.09
-1.56
-0.32
-1.78

> <PUBCHEM_SHAPE_SELFOVERLAP>
1047.623

> <PUBCHEM_SHAPE_VOLUME>
263.9

> <PUBCHEM_COORDINATE_TYPE>
2
5
10

$$$$
85470503
  -OEChem-05102415133D

 44 47  0     0  0  0  0  0  0999 V2000
   -4.3791   -2.3696   -1.4419 Cl  0  0  0  0  0  0  0  0  0  0  0  0
   -1.2191    1.1524    1.6930 O   0  0  0  0  0  0  0  0  0  0  0  0
    3.4949    2.0947    0.0593 O   0  0  0  0  0  0  0  0  0  0  0  0
   -1.7191   -0.8392    0.6193 N   0  0  0  0  0  0  0  0  0  0  0  0
    6.4334   -1.0582   -1.4371 N   0  0  0  0  0  0  0  0  0  0  0  0
    6.9206   -0.4639   -0.3344 N   0  0  0  0  0  0  0  0  0  0  0  0
   -3.1256   -0.8281    0.9119 C   0  0  0  0  0  0  0  0  0  0  0  0
   -3.5808   -0.8234    2.3624 C   0  0  0  0  0  0  0  0  0  0  0  0
   -3.7615   -2.0579    1.5403 C   0  0  0  0  0  0  0  0  0  0  0  0
   -3.9290   -0.0550   -0.0719 C   0  0  0  0  0  0  0  0  0  0  0  0
   -4.5324   -0.6719   -1.1677 C   0  0  0  0  0  0  0  0  0  0  0  0
   -4.0723    1.3191    0.1211 C   0  0  0  0  0  0  0  0  0  0  0  0
   -0.8392    0.1678    1.0346 C   0  0  0  0  0  0  0  0  0  0  0  0
   -5.2791    0.0850   -2.0706 C   0  0  0  0  0  0  0  0  0  0  0  0
   -4.8192    2.0760   -0.7817 C   0  0  0  0  0  0  0  0  0  0  0  0
    0.5626    0.0092    0.6812 C   0  0  0  0  0  0  0  0  0  0  0  0
   -5.4224    1.4591   -1.8776 C   0  0  0  0  0  0  0  0  0  0  0  0
    1.3767    1.1323    0.5347 C   0  0  0  0  0  0  0  0  0  0  0  0
    1.0933   -1.2667    0.4902 C   0  0  0  0  0  0  0  0  0  0  0  0
    2.7217    0.9797    0.1973 C   0  0  0  0  0  0  0  0  0  0  0  0
    2.4381   -1.4193    0.1526 C   0  0  0  0  0  0  0  0  0  0  0  0
    3.2524   -0.2961    0.0065 C   0  0  0  0  0  0  0  0  0  0  0  0
    4.6365   -0.4762   -0.3400 C   0  0  0  0  0  0  0  0  0  0  0  0
    5.0708   -1.0915   -1.4887 C   0  0  0  0  0  0  0  0  0  0  0  0
    5.8183   -0.1106    0.3318 C   0  0  0  0  0  0  0  0  0  0  0  0
    2.8596    3.3525    0.2752 C   0  0  0  0  0  0  0  0  0  0  0  0
   -2.8298   -0.8516    3.1439 H   0  0  0  0  0  0  0  0  0  0  0  0
   -4.4725   -0.2717    2.6375 H   0  0  0  0  0  0  0  0  0  0  0  0
   -3.1239   -2.9064    1.7630 H   0  0  0  0  0  0  0  0  0  0  0  0
   -4.7915   -2.3302    1.3412 H   0  0  0  0  0  0  0  0  0  0  0  0
   -1.3896   -1.6038    0.0374 H   0  0  0  0  0  0  0  0  0  0  0  0
   -3.6218    1.8197    0.9730 H   0  0  0  0  0  0  0  0  0  0  0  0
   -5.7557   -0.3805   -2.9296 H   0  0  0  0  0  0  0  0  0  0  0  0
   -4.9332    3.1454   -0.6300 H   0  0  0  0  0  0  0  0  0  0  0  0
   -6.0043    2.0485   -2.5801 H   0  0  0  0  0  0  0  0  0  0  0  0
    0.9098    2.0990    0.6883 H   0  0  0  0  0  0  0  0  0  0  0  0
    0.5024   -2.1680    0.6250 H   0  0  0  0  0  0  0  0  0  0  0  0
    2.8341   -2.4236    0.0194 H   0  0  0  0  0  0  0  0  0  0  0  0
    4.5511   -1.5407   -2.3239 H   0  0  0  0  0  0  0  0  0  0  0  0
    5.9265    0.3981    1.2795 H   0  0  0  0  0  0  0  0  0  0  0  0
    3.6211    4.1254    0.1263 H   0  0  0  0  0  0  0  0  0  0  0  0
    2.5043    3.4562    1.3062 H   0  0  0  0  0  0  0  0  0  0  0  0
    2.0722    3.5412   -0.4627 H   0  0  0  0  0  0  0  0  0  0  0  0
    7.0902   -1.4204   -2.1170 H   0  0  0  0  0  0  0  0  0  0  0  0
  1 11  1  0  0  0  0
  2 13  2  0  0  0  0
  3 20  1  0  0  0  0
  3 26  1  0  0  0  0
  4  7  1  0  0  0  0
  4 13  1  0  0  0  0
  4 31  1  0  0  0  0
  5  6  1  0  0  0  0
  5 24  1  0  0  0  0
  5 44  1  0  0  0  0
  6 25  2  0  0  0  0
  7  8  1  0  0  0  0
  7  9  1  0  0  0  0
  7 10  1  0  0  0  0
  8  9  1  0  0  0  0
  8 27  1  0  0  0  0
  8 28  1  0  0  0  0
  9 29  1  0  0  0  0
  9 30  1  0  0  0  0
 10 11  1  0  0  0  0
 10 12  2  0  0  0  0
 11 14  2  0  0  0  0
 12 15  1  0  0  0  0
 12 32  1  0  0  0  0
 13 16  1  0  0  0  0
 14 17  1  0  0  0  0
 14 33  1  0  0  0  0
 15 17  2  0  0  0  0
 15 34  1  0  0  0  0
 16 18  2  0  0  0  0
 16 19  1  0  0  0  0
 17 35  1  0  0  0  0
 18 20  1  0  0  0  0
 18 36  1  0  0  0  0
 19 21  2  0  0  0  0
 19 37  1  0  0  0  0
 20 22  2  0  0  0  0
 21 22  1  0  0  0  0
 21 38  1  0  0  0  0
 22 23  1  0  0  0  0
 23 24  2  0  0  0  0
 23 25  1  0  0  0  0
 24 39  1  0  0  0  0
 25 40  1  0  0  0  0
 26 41  1  0  0  0  0
 26 42  1  0  0  0  0
 26 43  1  0  0  0  0
M  END
> <PUBCHEM_COMPOUND_CID>
85470503

> <PUBCHEM_CONFORMER_RMSD>
0.8

> <PUBCHEM_CONFORMER_DIVERSEORDER>
3
12
24
20
32
16
4
8
17
10
19
28
27
29
15
18
21
23
5
31
26
25
6
11
22
14
7
2
30
9
13
1

> <PUBCHEM_MMFF94_PARTIAL_CHARGES>
41
1 -0.18
10 -0.03
11 0.18
12 -0.15
13 0.54
14 -0.15
15 -0.15
16 0.09
17 -0.15
18 -0.15
19 -0.15
2 -0.57
20 0.08
21 -0.15
22 0.05
23 -0.05
24 -0.3
25 0.14
26 0.28
27 0.1
28 0.1
29 0.1
3 -0.36
30 0.1
31 0.37
32 0.15
33 0.15
34 0.15
35 0.15
36 0.15
37 0.15
38 0.15
39 0.15
4 -0.58
40 0.15
44 0.27
5 0.3
6 -0.71
7 0.18
8 -0.2
9 -0.2

> <PUBCHEM_EFFECTIVE_ROTOR_COUNT>
6.6

> <PUBCHEM_PHARMACOPHORE_FEATURES>
8
1 2 acceptor
1 3 acceptor
1 4 donor
1 5 donor
1 6 acceptor
5 5 6 23 24 25 rings
6 10 11 12 14 15 17 rings
6 16 18 19 20 21 22 rings

> <PUBCHEM_HEAVY_ATOM_COUNT>
26

> <PUBCHEM_ATOM_DEF_STEREO_COUNT>
0

> <PUBCHEM_ATOM_UDEF_STEREO_COUNT>
0

> <PUBCHEM_BOND_DEF_STEREO_COUNT>
0

> <PUBCHEM_BOND_UDEF_STEREO_COUNT>
0

> <PUBCHEM_ISOTOPIC_ATOM_COUNT>
0

> <PUBCHEM_COMPONENT_COUNT>
1

> <PUBCHEM_CACTVS_TAUTO_COUNT>
9

> <PUBCHEM_CONFORMER_ID>
05182D2700000003

> <PUBCHEM_MMFF94_ENERGY>
79.5727

> <PUBCHEM_FEATURE_SELFOVERLAP>
40.597

> <PUBCHEM_SHAPE_FINGERPRINT>
10 15 9655277217323246710
105312 117 17603586296965495227
10670039 82 16950276291449797429
11315181 36 15267339613489264619
11545043 162 17895201042414998130
12236239 1 17132396116224853936
12403259 415 17968101966150748624
12596602 18 13830132755051095014
12616971 3 17845951709041206803
12788726 201 18193267499566327105
13690498 29 18043261325752250075
14347329 18 17022900151155931276
15064981 194 18261117379296691837
15131766 46 17695084571064490769
15183329 4 18334288730360892612
15188451 53 14261342549209367533
15788980 27 18271811236891250090
16994733 274 16009324222831702556
17349148 13 16200152118577321903
17844677 252 17749963270226309488
17857418 61 16702303434084896478
18222031 100 18273494551372047946
18681886 176 18059565915181908026
18927931 339 17274836743743983171
200 152 17989207031737309881
21033648 144 18195253440829854442
21033648 29 17895191159816874456
21033650 10 18335976477010965993
21279426 13 18115032900996375090
21709351 56 18410856581214911406
21756936 100 14056724543255326273
21859007 373 18187628207833713292
22393880 68 18410283740115655987
23081809 10 15574718023641651530
23198884 109 17822006493715199751
23402539 116 16988851553013896378
23522609 53 15481850003142320322
23559900 14 18411415124685219072
23569914 152 17190373102254163390
23569914 2 16157617648891292028
23576562 1 18190465046606360084
24771293 8 18131915975614365688
25222932 49 13326567433156486340
2838139 119 17385719179790313724
3004659 81 18131340908618665815
4015057 19 17988362684148218794
4098825 35 18412261740681264925
465052 167 13039183698406698734
484985 159 16558749066519033439
497634 4 15213305278763648251
508706 21 17676759955350742917
531348 171 18340764832669400375
6086070 43 18187917396106918648
90127 26 18187927334518855593

> <PUBCHEM_SHAPE_MULTIPOLES>
510.26
16.22
2.4
1.79
12.5
1.31
-0.07
-1.23
-8.21
-0.81
-0.05
-2.44
-0.47
1.85

> <PUBCHEM_SHAPE_SELFOVERLAP>
1113.251

> <PUBCHEM_SHAPE_VOLUME>
278.8

> <PUBCHEM_COORDINATE_TYPE>
2
5
10

$$$$
118662955
  -OEChem-05102415133D

 62 65  0     0  0  0  0  0  0999 V2000
   -5.6136    0.7630    0.3902 O   0  0  0  0  0  0  0  0  0  0  0  0
    0.5675   -0.1236    0.3926 O   0  0  0  0  0  0  0  0  0  0  0  0
    0.6071   -3.8692    0.4496 O   0  0  0  0  0  0  0  0  0  0  0  0
   -1.3012    4.2964   -0.0539 N   0  0  0  0  0  0  0  0  0  0  0  0
   -3.5115    1.3729   -0.3750 N   0  0  0  0  0  0  0  0  0  0  0  0
   -0.2453   -2.5138   -1.2284 N   0  0  0  0  0  0  0  0  0  0  0  0
    6.6667    2.1445    0.0128 N   0  0  0  0  0  0  0  0  0  0  0  0
    7.4918    1.1519    0.3871 N   0  0  0  0  0  0  0  0  0  0  0  0
   -3.7834    2.7873   -0.5020 C   0  0  0  0  0  0  0  0  0  0  0  0
   -2.9745    3.4044   -1.6454 C   0  0  0  0  0  0  0  0  0  0  0  0
   -3.4909    3.5253    0.8064 C   0  0  0  0  0  0  0  0  0  0  0  0
   -1.4886    3.5349   -1.2960 C   0  0  0  0  0  0  0  0  0  0  0  0
   -1.9878    3.6523    1.0739 C   0  0  0  0  0  0  0  0  0  0  0  0
    0.1230    4.4575    0.2382 C   0  0  0  0  0  0  0  0  0  0  0  0
   -4.4654    0.4704    0.0669 C   0  0  0  0  0  0  0  0  0  0  0  0
   -4.0211   -0.9435    0.1672 C   0  0  0  0  0  0  0  0  0  0  0  0
   -2.9917   -1.4117   -0.6494 C   0  0  0  0  0  0  0  0  0  0  0  0
   -4.6340   -1.8033    1.0786 C   0  0  0  0  0  0  0  0  0  0  0  0
   -2.5754   -2.7397   -0.5545 C   0  0  0  0  0  0  0  0  0  0  0  0
   -1.4736   -3.2406   -1.4262 C   0  0  0  0  0  0  0  0  0  0  0  0
   -4.2179   -3.1313    1.1733 C   0  0  0  0  0  0  0  0  0  0  0  0
   -3.1885   -3.5994    0.3568 C   0  0  0  0  0  0  0  0  0  0  0  0
    1.9065   -2.0259   -0.1925 C   0  0  0  0  0  0  0  0  0  0  0  0
    0.7063   -2.8956   -0.2925 C   0  0  0  0  0  0  0  0  0  0  0  0
    1.7880   -0.6778    0.1454 C   0  0  0  0  0  0  0  0  0  0  0  0
    4.1855   -0.4266   -0.0154 C   0  0  0  0  0  0  0  0  0  0  0  0
    3.1646   -2.5743   -0.4417 C   0  0  0  0  0  0  0  0  0  0  0  0
    2.9275    0.1217    0.2340 C   0  0  0  0  0  0  0  0  0  0  0  0
    4.3041   -1.7747   -0.3533 C   0  0  0  0  0  0  0  0  0  0  0  0
    5.3588    0.3963    0.0758 C   0  0  0  0  0  0  0  0  0  0  0  0
    5.3781    1.7445   -0.1864 C   0  0  0  0  0  0  0  0  0  0  0  0
    6.6871    0.0864    0.4237 C   0  0  0  0  0  0  0  0  0  0  0  0
    0.1017   -0.1586    1.7399 C   0  0  0  0  0  0  0  0  0  0  0  0
   -4.8502    2.8976   -0.7321 H   0  0  0  0  0  0  0  0  0  0  0  0
   -3.3757    4.4014   -1.8703 H   0  0  0  0  0  0  0  0  0  0  0  0
   -3.0830    2.8047   -2.5572 H   0  0  0  0  0  0  0  0  0  0  0  0
   -3.9689    3.0172    1.6526 H   0  0  0  0  0  0  0  0  0  0  0  0
   -3.9276    4.5314    0.7539 H   0  0  0  0  0  0  0  0  0  0  0  0
   -0.9929    4.0560   -2.1244 H   0  0  0  0  0  0  0  0  0  0  0  0
   -1.0272    2.5418   -1.2219 H   0  0  0  0  0  0  0  0  0  0  0  0
   -1.5602    2.6629    1.2797 H   0  0  0  0  0  0  0  0  0  0  0  0
   -1.8550    4.2558    1.9802 H   0  0  0  0  0  0  0  0  0  0  0  0
   -2.5533    1.0709   -0.5136 H   0  0  0  0  0  0  0  0  0  0  0  0
    0.2652    5.0684    1.1365 H   0  0  0  0  0  0  0  0  0  0  0  0
    0.6271    4.9826   -0.5807 H   0  0  0  0  0  0  0  0  0  0  0  0
    0.6255    3.4953    0.3921 H   0  0  0  0  0  0  0  0  0  0  0  0
   -2.5209   -0.7734   -1.3922 H   0  0  0  0  0  0  0  0  0  0  0  0
   -5.4344   -1.4565    1.7269 H   0  0  0  0  0  0  0  0  0  0  0  0
   -1.2839   -4.3067   -1.2561 H   0  0  0  0  0  0  0  0  0  0  0  0
   -1.7582   -3.1282   -2.4786 H   0  0  0  0  0  0  0  0  0  0  0  0
   -4.6942   -3.8004    1.8840 H   0  0  0  0  0  0  0  0  0  0  0  0
   -2.8742   -4.6361    0.4434 H   0  0  0  0  0  0  0  0  0  0  0  0
   -0.0845   -1.6840   -1.7923 H   0  0  0  0  0  0  0  0  0  0  0  0
    3.2697   -3.6228   -0.7087 H   0  0  0  0  0  0  0  0  0  0  0  0
    2.8070    1.1668    0.5107 H   0  0  0  0  0  0  0  0  0  0  0  0
    5.2721   -2.2253   -0.5586 H   0  0  0  0  0  0  0  0  0  0  0  0
    4.6205    2.4508   -0.4971 H   0  0  0  0  0  0  0  0  0  0  0  0
    7.1096   -0.8678    0.7061 H   0  0  0  0  0  0  0  0  0  0  0  0
    7.0515    3.0753   -0.0897 H   0  0  0  0  0  0  0  0  0  0  0  0
   -0.9192    0.2322    1.7590 H   0  0  0  0  0  0  0  0  0  0  0  0
    0.7308    0.4726    2.3751 H   0  0  0  0  0  0  0  0  0  0  0  0
    0.0885   -1.1836    2.1237 H   0  0  0  0  0  0  0  0  0  0  0  0
  1 15  2  0  0  0  0
  2 25  1  0  0  0  0
  2 33  1  0  0  0  0
  3 24  2  0  0  0  0
  4 12  1  0  0  0  0
  4 13  1  0  0  0  0
  4 14  1  0  0  0  0
  5  9  1  0  0  0  0
  5 15  1  0  0  0  0
  5 43  1  0  0  0  0
  6 20  1  0  0  0  0
  6 24  1  0  0  0  0
  6 53  1  0  0  0  0
  7  8  1  0  0  0  0
  7 31  1  0  0  0  0
  7 59  1  0  0  0  0
  8 32  2  0  0  0  0
  9 10  1  0  0  0  0
  9 11  1  0  0  0  0
  9 34  1  0  0  0  0
 10 12  1  0  0  0  0
 10 35  1  0  0  0  0
 10 36  1  0  0  0  0
 11 13  1  0  0  0  0
 11 37  1  0  0  0  0
 11 38  1  0  0  0  0
 12 39  1  0  0  0  0
 12 40  1  0  0  0  0
 13 41  1  0  0  0  0
 13 42  1  0  0  0  0
 14 44  1  0  0  0  0
 14 45  1  0  0  0  0
 14 46  1  0  0  0  0
 15 16  1  0  0  0  0
 16 17  1  0  0  0  0
 16 18  2  0  0  0  0
 17 19  2  0  0  0  0
 17 47  1  0  0  0  0
 18 21  1  0  0  0  0
 18 48  1  0  0  0  0
 19 20  1  0  0  0  0
 19 22  1  0  0  0  0
 20 49  1  0  0  0  0
 20 50  1  0  0  0  0
 21 22  2  0  0  0  0
 21 51  1  0  0  0  0
 22 52  1  0  0  0  0
 23 24  1  0  0  0  0
 23 25  2  0  0  0  0
 23 27  1  0  0  0  0
 25 28  1  0  0  0  0
 26 28  2  0  0  0  0
 26 29  1  0  0  0  0
 26 30  1  0  0  0  0
 27 29  2  0  0  0  0
 27 54  1  0  0  0  0
 28 55  1  0  0  0  0
 29 56  1  0  0  0  0
 30 31  2  0  0  0  0
 30 32  1  0  0  0  0
 31 57  1  0  0  0  0
 32 58  1  0  0  0  0
 33 60  1  0  0  0  0
 33 61  1  0  0  0  0
 33 62  1  0  0  0  0
M  END
> <PUBCHEM_COMPOUND_CID>
118662955

> <PUBCHEM_CONFORMER_RMSD>
1.2

> <PUBCHEM_CONFORMER_DIVERSEORDER>
1
123
29
43
50
74
100
84
94
57
32
11
107
117
42
76
113
2
93
45
80
34
129
66
122
91
46
51
95
20
87
101
6
83
64
61
53
49
98
99
121
82
85
9
73
103
13
106
120
77
124
7
19
111
119
62
108
115
127
68
48
88
23
65
92
105
71
67
132
55
52
102
63
14
25
8
22
114
21
24
69
130
35
116
75
15
17
4
125
86
12
112
89
59
81
96
110
41
128
56
39
109
30
90
126
60
131
78
5
44
72
104
31
40
38
16
97
33
37
36
54
28
18
79
47
70
118
10
58
27
3
26

> <PUBCHEM_MMFF94_PARTIAL_CHARGES>
43
1 -0.57
12 0.27
13 0.27
14 0.27
15 0.54
16 0.09
17 -0.15
18 -0.15
19 -0.14
2 -0.36
20 0.44
21 -0.15
22 -0.15
23 0.09
24 0.54
25 0.08
26 0.05
27 -0.15
28 -0.15
29 -0.15
3 -0.57
30 -0.05
31 -0.3
32 0.14
33 0.28
4 -0.81
43 0.37
47 0.15
48 0.15
5 -0.73
51 0.15
52 0.15
53 0.37
54 0.15
55 0.15
56 0.15
57 0.15
58 0.15
59 0.27
6 -0.73
7 0.3
8 -0.71
9 0.3

> <PUBCHEM_EFFECTIVE_ROTOR_COUNT>
10.2

> <PUBCHEM_PHARMACOPHORE_FEATURES>
12
1 1 acceptor
1 2 acceptor
1 3 acceptor
1 4 cation
1 5 donor
1 6 donor
1 7 donor
1 8 acceptor
5 7 8 30 31 32 rings
6 16 17 18 19 21 22 rings
6 23 25 26 27 28 29 rings
6 4 9 10 11 12 13 rings

> <PUBCHEM_HEAVY_ATOM_COUNT>
33

> <PUBCHEM_ATOM_DEF_STEREO_COUNT>
0

> <PUBCHEM_ATOM_UDEF_STEREO_COUNT>
0

> <PUBCHEM_BOND_DEF_STEREO_COUNT>
0

> <PUBCHEM_BOND_UDEF_STEREO_COUNT>
0

> <PUBCHEM_ISOTOPIC_ATOM_COUNT>
0

> <PUBCHEM_COMPONENT_COUNT>
1

> <PUBCHEM_CACTVS_TAUTO_COUNT>
18

> <PUBCHEM_CONFORMER_ID>
0712A72B00000001

> <PUBCHEM_MMFF94_ENERGY>
79.9401

> <PUBCHEM_FEATURE_SELFOVERLAP>
60.898

> <PUBCHEM_SHAPE_FINGERPRINT>
100830 39 18410291398654157512
10462674 296 17696742634076703374
10675989 125 17402891125092584953
11135609 187 18194390097176478245
12788726 201 18335127744086159610
13561361 72 18339629161881070040
13947920 24 18341046337515625561
14114211 80 17916308230438336609
14394314 77 18340772555458851081
14747282 125 17840317945116555252
14790565 3 18410855495258631174
14856354 85 18194124238130968366
15274700 232 17333659276656168334
15320467 1 18411419496788177328
15326923 133 17770781518446451368
15347590 135 17968385649094818707
15419008 145 18335126602146702034
15721738 15 16459084577136497452
15876981 60 18189335834968735983
19611394 137 17899425461127788555
21716022 299 16261761294488598943
21792964 463 17750246953750342340
22956985 138 16961274986058579995
354706 35 18121757475356635213
50150288 127 16342029650135631593
5047190 92 17981328894256468537
550186 7 18272376373383920070
6036956 94 18408886209529845485
6608658 132 18271229621311148215
6700243 42 17552957274009410662

> <PUBCHEM_SHAPE_MULTIPOLES>
636.61
14.14
6.63
1.16
22.84
3.87
-0.05
3.89
1.89
-6.77
-0.64
-0.95
0.1
1.13

> <PUBCHEM_SHAPE_SELFOVERLAP>
1369.298

> <PUBCHEM_SHAPE_VOLUME>
351.1

> <PUBCHEM_COORDINATE_TYPE>
2
5
10

$$$$
131635881
  -OEChem-05102415133D

 60 62  0     1  0  0  0  0  0999 V2000
    3.0096   -0.4482   -0.4964 O   0  0  0  0  0  0  0  0  0  0  0  0
    4.4020   -1.7642   -1.7629 O   0  0  0  0  0  0  0  0  0  0  0  0
   -0.4755    3.0351   -1.6567 O   0  0  0  0  0  0  0  0  0  0  0  0
   -3.2138   -2.0539   -0.4155 O   0  0  0  0  0  0  0  0  0  0  0  0
    3.8149   -2.3304    0.4080 N   0  0  0  0  0  0  0  0  0  0  0  0
    0.6447    1.1496   -0.9043 N   0  0  0  0  0  0  0  0  0  0  0  0
   -7.2698   -0.9910    1.3812 N   0  0  0  0  0  0  0  0  0  0  0  0
   -7.4405   -1.6505    0.2227 N   0  0  0  0  0  0  0  0  0  0  0  0
    4.5628   -3.5706    0.5065 C   0  0  0  0  0  0  0  0  0  0  0  0
    1.9822    1.6298   -1.1786 C   0  0  2  0  0  0  0  0  0  0  0  0
    2.8984    0.4731   -1.5872 C   0  0  0  0  0  0  0  0  0  0  0  0
    4.3471   -4.1835    1.8950 C   0  0  0  0  0  0  0  0  0  0  0  0
    6.0539   -3.2809    0.2990 C   0  0  0  0  0  0  0  0  0  0  0  0
    4.0681   -4.5408   -0.5714 C   0  0  0  0  0  0  0  0  0  0  0  0
    2.5249    2.4089    0.0000 C   0  0  0  0  0  0  0  0  0  0  0  0
    3.8020   -1.5395   -0.7169 C   0  0  0  0  0  0  0  0  0  0  0  0
   -0.4835    1.9066   -1.1718 C   0  0  0  0  0  0  0  0  0  0  0  0
    2.1853    2.0337    1.2999 C   0  0  0  0  0  0  0  0  0  0  0  0
    3.3645    3.5021   -0.2137 C   0  0  0  0  0  0  0  0  0  0  0  0
   -1.7815    1.2821   -0.8081 C   0  0  0  0  0  0  0  0  0  0  0  0
   -4.2183    0.1100   -0.1216 C   0  0  0  0  0  0  0  0  0  0  0  0
   -1.9035   -0.1071   -0.7786 C   0  0  0  0  0  0  0  0  0  0  0  0
   -3.1219   -0.6932   -0.4353 C   0  0  0  0  0  0  0  0  0  0  0  0
   -2.8778    2.0854   -0.4944 C   0  0  0  0  0  0  0  0  0  0  0  0
    2.6855    2.7518    2.3863 C   0  0  0  0  0  0  0  0  0  0  0  0
    3.8647    4.2202    0.8727 C   0  0  0  0  0  0  0  0  0  0  0  0
   -4.0964    1.4993   -0.1514 C   0  0  0  0  0  0  0  0  0  0  0  0
    3.5254    3.8448    2.1726 C   0  0  0  0  0  0  0  0  0  0  0  0
   -5.4830   -0.4733    0.2366 C   0  0  0  0  0  0  0  0  0  0  0  0
   -6.1130   -0.2709    1.4402 C   0  0  0  0  0  0  0  0  0  0  0  0
   -6.3458   -1.3305   -0.4724 C   0  0  0  0  0  0  0  0  0  0  0  0
   -2.9117   -2.7042    0.8166 C   0  0  0  0  0  0  0  0  0  0  0  0
    1.9064    2.3137   -2.0342 H   0  0  0  0  0  0  0  0  0  0  0  0
    2.4771   -0.0496   -2.4546 H   0  0  0  0  0  0  0  0  0  0  0  0
    3.8963    0.8493   -1.8430 H   0  0  0  0  0  0  0  0  0  0  0  0
    4.8972   -5.1244    2.0071 H   0  0  0  0  0  0  0  0  0  0  0  0
    3.2857   -4.3909    2.0745 H   0  0  0  0  0  0  0  0  0  0  0  0
    4.6827   -3.5011    2.6846 H   0  0  0  0  0  0  0  0  0  0  0  0
    6.6523   -4.1848    0.4632 H   0  0  0  0  0  0  0  0  0  0  0  0
    6.4083   -2.5167    1.0009 H   0  0  0  0  0  0  0  0  0  0  0  0
    6.2842   -2.9286   -0.7110 H   0  0  0  0  0  0  0  0  0  0  0  0
    4.2865   -4.1995   -1.5878 H   0  0  0  0  0  0  0  0  0  0  0  0
    4.5439   -5.5221   -0.4586 H   0  0  0  0  0  0  0  0  0  0  0  0
    2.9839   -4.6889   -0.5013 H   0  0  0  0  0  0  0  0  0  0  0  0
    3.2694   -2.0218    1.2075 H   0  0  0  0  0  0  0  0  0  0  0  0
    0.5661    0.2656   -0.4123 H   0  0  0  0  0  0  0  0  0  0  0  0
    1.5456    1.1792    1.5015 H   0  0  0  0  0  0  0  0  0  0  0  0
    3.6381    3.8033   -1.2213 H   0  0  0  0  0  0  0  0  0  0  0  0
   -1.0793   -0.7620   -1.0481 H   0  0  0  0  0  0  0  0  0  0  0  0
   -2.8016    3.1695   -0.5078 H   0  0  0  0  0  0  0  0  0  0  0  0
    2.4241    2.4578    3.3986 H   0  0  0  0  0  0  0  0  0  0  0  0
    4.5190    5.0709    0.7065 H   0  0  0  0  0  0  0  0  0  0  0  0
   -4.9390    2.1445    0.0864 H   0  0  0  0  0  0  0  0  0  0  0  0
    3.9157    4.4032    3.0184 H   0  0  0  0  0  0  0  0  0  0  0  0
   -5.8536    0.3044    2.3183 H   0  0  0  0  0  0  0  0  0  0  0  0
   -6.2264   -1.7371   -1.4668 H   0  0  0  0  0  0  0  0  0  0  0  0
   -7.9852   -1.0773    2.0923 H   0  0  0  0  0  0  0  0  0  0  0  0
   -3.0781   -3.7770    0.6867 H   0  0  0  0  0  0  0  0  0  0  0  0
   -3.5609   -2.3457    1.6212 H   0  0  0  0  0  0  0  0  0  0  0  0
   -1.8623   -2.5439    1.0839 H   0  0  0  0  0  0  0  0  0  0  0  0
  1 11  1  0  0  0  0
  1 16  1  0  0  0  0
  2 16  2  0  0  0  0
  3 17  2  0  0  0  0
  4 23  1  0  0  0  0
  4 32  1  0  0  0  0
  5  9  1  0  0  0  0
  5 16  1  0  0  0  0
  5 45  1  0  0  0  0
  6 10  1  0  0  0  0
  6 17  1  0  0  0  0
  6 46  1  0  0  0  0
  7  8  1  0  0  0  0
  7 30  1  0  0  0  0
  7 57  1  0  0  0  0
  8 31  2  0  0  0  0
  9 12  1  0  0  0  0
  9 13  1  0  0  0  0
  9 14  1  0  0  0  0
 10 11  1  0  0  0  0
 10 15  1  0  0  0  0
 10 33  1  0  0  0  0
 11 34  1  0  0  0  0
 11 35  1  0  0  0  0
 12 36  1  0  0  0  0
 12 37  1  0  0  0  0
 12 38  1  0  0  0  0
 13 39  1  0  0  0  0
 13 40  1  0  0  0  0
 13 41  1  0  0  0  0
 14 42  1  0  0  0  0
 14 43  1  0  0  0  0
 14 44  1  0  0  0  0
 15 18  2  0  0  0  0
 15 19  1  0  0  0  0
 17 20  1  0  0  0  0
 18 25  1  0  0  0  0
 18 47  1  0  0  0  0
 19 26  2  0  0  0  0
 19 48  1  0  0  0  0
 20 22  2  0  0  0  0
 20 24  1  0  0  0  0
 21 23  2  0  0  0  0
 21 27  1  0  0  0  0
 21 29  1  0  0  0  0
 22 23  1  0  0  0  0
 22 49  1  0  0  0  0
 24 27  2  0  0  0  0
 24 50  1  0  0  0  0
 25 28  2  0  0  0  0
 25 51  1  0  0  0  0
 26 28  1  0  0  0  0
 26 52  1  0  0  0  0
 27 53  1  0  0  0  0
 28 54  1  0  0  0  0
 29 30  2  0  0  0  0
 29 31  1  0  0  0  0
 30 55  1  0  0  0  0
 31 56  1  0  0  0  0
 32 58  1  0  0  0  0
 32 59  1  0  0  0  0
 32 60  1  0  0  0  0
M  END
> <PUBCHEM_COMPOUND_CID>
131635881

> <PUBCHEM_CONFORMER_RMSD>
1

> <PUBCHEM_CONFORMER_DIVERSEORDER>
1
98
113
69
112
53
125
65
59
57
123
55
28
103
34
76
85
95
122
45
77
97
111
72
79
29
60
87
39
50
67
66
22
128
124
64
47
126
19
127
31
41
58
110
81
42
6
90
88
73
99
7
23
54
116
18
93
70
120
129
15
106
35
80
102
108
71
104
92
74
33
63
4
2
115
86
131
68
100
8
40
48
109
96
89
130
101
121
30
51
46
118
82
91
52
21
107
11
94
84
43
17
12
20
13
78
117
56
38
44
105
61
132
62
114
36
75
27
5
83
119
37
26
14
10
49
9
32
16
3
25
24

> <PUBCHEM_MMFF94_PARTIAL_CHARGES>
42
1 -0.43
10 0.44
11 0.28
15 -0.14
16 0.78
17 0.54
18 -0.15
19 -0.15
2 -0.57
20 0.09
21 0.05
22 -0.15
23 0.08
24 -0.15
25 -0.15
26 -0.15
27 -0.15
28 -0.15
29 -0.05
3 -0.57
30 -0.3
31 0.14
32 0.28
4 -0.36
45 0.37
46 0.37
47 0.15
48 0.15
49 0.15
5 -0.73
50 0.15
51 0.15
52 0.15
53 0.15
54 0.15
55 0.15
56 0.15
57 0.27
6 -0.73
7 0.3
8 -0.71
9 0.3

> <PUBCHEM_EFFECTIVE_ROTOR_COUNT>
11

> <PUBCHEM_PHARMACOPHORE_FEATURES>
11
1 2 acceptor
1 3 acceptor
1 4 acceptor
1 5 donor
1 6 donor
1 7 donor
1 8 acceptor
4 9 12 13 14 hydrophobe
5 7 8 29 30 31 rings
6 15 18 19 25 26 28 rings
6 20 21 22 23 24 27 rings

> <PUBCHEM_HEAVY_ATOM_COUNT>
32

> <PUBCHEM_ATOM_DEF_STEREO_COUNT>
0

> <PUBCHEM_ATOM_UDEF_STEREO_COUNT>
1

> <PUBCHEM_BOND_DEF_STEREO_COUNT>
0

> <PUBCHEM_BOND_UDEF_STEREO_COUNT>
0

> <PUBCHEM_ISOTOPIC_ATOM_COUNT>
0

> <PUBCHEM_COMPONENT_COUNT>
1

> <PUBCHEM_CACTVS_TAUTO_COUNT>
22

> <PUBCHEM_CONFORMER_ID>
07D89AA900000001

> <PUBCHEM_MMFF94_ENERGY>
89.0068

> <PUBCHEM_FEATURE_SELFOVERLAP>
55.822

> <PUBCHEM_SHAPE_FINGERPRINT>
10074138 170 17120848792145432056
10581848 197 18054193710259554850
11443803 9 17171817066221459900
12107183 9 18197508316130891425
13533116 47 18412549838107201421
13540713 4 18189036660411316613
13955234 65 18341891943862736312
14565420 104 17700970200498542816
14725015 67 18261952947360693567
15475509 35 18409732863283330444
18393751 57 17907844451399645752
19315092 285 18273216395782773169
19841028 212 18341044229605107319
20775438 99 18189606327583007187
20775530 9 18264761078704366982
23559900 14 18334573534111844717
24893989 43 15724212181414204051
32027 91 18337380540210561255
4461854 278 17397844843467511002
50009960 94 18115285801022980506
5104073 3 18201446865760979145
513202 73 17968671406643850669
6201460 15 16667102367348566258
6371380 46 17977372846708090405
6442390 28 17980474891433059220
6703917 75 17979081806090764268
9961470 85 18336819905334956371
9962374 69 18272078418554949479

> <PUBCHEM_SHAPE_MULTIPOLES>
615.14
16.44
6.31
1.74
23.57
1.49
0.6
14.27
4.83
-14.22
2.31
-1.42
-0.81
1.81

> <PUBCHEM_SHAPE_SELFOVERLAP>
1311.719

> <PUBCHEM_SHAPE_VOLUME>
342.2

> <PUBCHEM_COORDINATE_TYPE>
2
5
10

$$$$
118662994
  -OEChem-05102415133D

 43 45  0     1  0  0  0  0  0999 V2000
    4.8849    1.4132   -2.0217 Cl  0  0  0  0  0  0  0  0  0  0  0  0
    3.0834   -1.2129    1.9617 F   0  0  0  0  0  0  0  0  0  0  0  0
   -2.4952   -1.8400   -0.5766 O   0  0  0  0  0  0  0  0  0  0  0  0
    0.9499    2.9513   -0.2446 O   0  0  0  0  0  0  0  0  0  0  0  0
    1.6733    0.8336    0.3629 N   0  0  0  0  0  0  0  0  0  0  0  0
   -6.7305   -0.5234    0.4907 N   0  0  0  0  0  0  0  0  0  0  0  0
   -6.6927   -0.9603   -0.7797 N   0  0  0  0  0  0  0  0  0  0  0  0
    3.0773    1.1601    0.4693 C   0  0  2  0  0  0  0  0  0  0  0  0
    3.9467   -0.0215    0.0970 C   0  0  0  0  0  0  0  0  0  0  0  0
    3.3989    1.7070    1.8587 C   0  0  0  0  0  0  0  0  0  0  0  0
   -0.6853    1.2844   -0.0313 C   0  0  0  0  0  0  0  0  0  0  0  0
    0.6877    1.7620    0.0083 C   0  0  0  0  0  0  0  0  0  0  0  0
   -3.3194    0.3680   -0.1039 C   0  0  0  0  0  0  0  0  0  0  0  0
   -2.2658   -0.5197   -0.3234 C   0  0  0  0  0  0  0  0  0  0  0  0
    4.7908    0.0159   -1.0129 C   0  0  0  0  0  0  0  0  0  0  0  0
    3.8906   -1.1660    0.8924 C   0  0  0  0  0  0  0  0  0  0  0  0
   -0.9488   -0.0613   -0.2871 C   0  0  0  0  0  0  0  0  0  0  0  0
   -1.7389    2.1719    0.1881 C   0  0  0  0  0  0  0  0  0  0  0  0
   -3.0558    1.7138    0.1516 C   0  0  0  0  0  0  0  0  0  0  0  0
   -4.6844   -0.0836   -0.1350 C   0  0  0  0  0  0  0  0  0  0  0  0
    5.5788   -1.0914   -1.3274 C   0  0  0  0  0  0  0  0  0  0  0  0
    4.6785   -2.2733    0.5779 C   0  0  0  0  0  0  0  0  0  0  0  0
    5.5224   -2.2360   -0.5321 C   0  0  0  0  0  0  0  0  0  0  0  0
   -5.5529    0.0105    0.9251 C   0  0  0  0  0  0  0  0  0  0  0  0
   -5.4404   -0.6890   -1.1566 C   0  0  0  0  0  0  0  0  0  0  0  0
   -2.5532   -2.7134    0.5486 C   0  0  0  0  0  0  0  0  0  0  0  0
    3.2431    1.9999   -0.2089 H   0  0  0  0  0  0  0  0  0  0  0  0
    1.3958   -0.0971    0.6572 H   0  0  0  0  0  0  0  0  0  0  0  0
    3.1310    1.0100    2.6592 H   0  0  0  0  0  0  0  0  0  0  0  0
    2.8390    2.6302    2.0479 H   0  0  0  0  0  0  0  0  0  0  0  0
    4.4656    1.9381    1.9542 H   0  0  0  0  0  0  0  0  0  0  0  0
   -0.1544   -0.7735   -0.4936 H   0  0  0  0  0  0  0  0  0  0  0  0
   -1.5547    3.2234    0.3928 H   0  0  0  0  0  0  0  0  0  0  0  0
   -3.8620    2.4236    0.3222 H   0  0  0  0  0  0  0  0  0  0  0  0
    6.2415   -1.0786   -2.1890 H   0  0  0  0  0  0  0  0  0  0  0  0
    4.6346   -3.1642    1.1973 H   0  0  0  0  0  0  0  0  0  0  0  0
    6.1357   -3.0983   -0.7770 H   0  0  0  0  0  0  0  0  0  0  0  0
   -5.4479    0.3973    1.9294 H   0  0  0  0  0  0  0  0  0  0  0  0
   -5.1350   -0.9451   -2.1615 H   0  0  0  0  0  0  0  0  0  0  0  0
   -7.5961   -0.6214    1.0063 H   0  0  0  0  0  0  0  0  0  0  0  0
   -2.7911   -3.7184    0.1893 H   0  0  0  0  0  0  0  0  0  0  0  0
   -3.3322   -2.4008    1.2506 H   0  0  0  0  0  0  0  0  0  0  0  0
   -1.5838   -2.7448    1.0561 H   0  0  0  0  0  0  0  0  0  0  0  0
  1 15  1  0  0  0  0
  2 16  1  0  0  0  0
  3 14  1  0  0  0  0
  3 26  1  0  0  0  0
  4 12  2  0  0  0  0
  5  8  1  0  0  0  0
  5 12  1  0  0  0  0
  5 28  1  0  0  0  0
  6  7  1  0  0  0  0
  6 24  1  0  0  0  0
  6 40  1  0  0  0  0
  7 25  2  0  0  0  0
  8  9  1  0  0  0  0
  8 10  1  0  0  0  0
  8 27  1  0  0  0  0
  9 15  1  0  0  0  0
  9 16  2  0  0  0  0
 10 29  1  0  0  0  0
 10 30  1  0  0  0  0
 10 31  1  0  0  0  0
 11 12  1  0  0  0  0
 11 17  2  0  0  0  0
 11 18  1  0  0  0  0
 13 14  2  0  0  0  0
 13 19  1  0  0  0  0
 13 20  1  0  0  0  0
 14 17  1  0  0  0  0
 15 21  2  0  0  0  0
 16 22  1  0  0  0  0
 17 32  1  0  0  0  0
 18 19  2  0  0  0  0
 18 33  1  0  0  0  0
 19 34  1  0  0  0  0
 20 24  2  0  0  0  0
 20 25  1  0  0  0  0
 21 23  1  0  0  0  0
 21 35  1  0  0  0  0
 22 23  2  0  0  0  0
 22 36  1  0  0  0  0
 23 37  1  0  0  0  0
 24 38  1  0  0  0  0
 25 39  1  0  0  0  0
 26 41  1  0  0  0  0
 26 42  1  0  0  0  0
 26 43  1  0  0  0  0
M  END
> <PUBCHEM_COMPOUND_CID>
118662994

> <PUBCHEM_CONFORMER_RMSD>
0.8

> <PUBCHEM_CONFORMER_DIVERSEORDER>
1
72
74
80
67
84
46
38
54
56
85
86
50
30
29
22
83
18
60
33
42
35
62
44
13
45
28
82
88
75
52
79
19
7
32
14
47
49
71
64
63
11
40
78
55
81
26
39
76
25
57
43
59
41
87
77
20
73
31
69
10
66
65
8
48
24
61
58
34
23
15
68
51
6
36
5
27
53
21
17
37
70
16
4
12
9
2
3

> <PUBCHEM_MMFF94_PARTIAL_CHARGES>
35
1 -0.18
11 0.09
12 0.54
13 0.05
14 0.08
15 0.18
16 0.19
17 -0.15
18 -0.15
19 -0.15
2 -0.19
20 -0.05
21 -0.15
22 -0.15
23 -0.15
24 -0.3
25 0.14
26 0.28
28 0.37
3 -0.36
32 0.15
33 0.15
34 0.15
35 0.15
36 0.15
37 0.15
38 0.15
39 0.15
4 -0.57
40 0.27
5 -0.73
6 0.3
7 -0.71
8 0.44
9 -0.14

> <PUBCHEM_EFFECTIVE_ROTOR_COUNT>
6

> <PUBCHEM_PHARMACOPHORE_FEATURES>
8
1 3 acceptor
1 4 acceptor
1 5 donor
1 6 donor
1 7 acceptor
5 6 7 20 24 25 rings
6 11 13 14 17 18 19 rings
6 9 15 16 21 22 23 rings

> <PUBCHEM_HEAVY_ATOM_COUNT>
26

> <PUBCHEM_ATOM_DEF_STEREO_COUNT>
0

> <PUBCHEM_ATOM_UDEF_STEREO_COUNT>
1

> <PUBCHEM_BOND_DEF_STEREO_COUNT>
0

> <PUBCHEM_BOND_UDEF_STEREO_COUNT>
0

> <PUBCHEM_ISOTOPIC_ATOM_COUNT>
0

> <PUBCHEM_COMPONENT_COUNT>
1

> <PUBCHEM_CACTVS_TAUTO_COUNT>
9

> <PUBCHEM_CONFORMER_ID>
0712A75200000001

> <PUBCHEM_MMFF94_ENERGY>
75.59

> <PUBCHEM_FEATURE_SELFOVERLAP>
40.597

> <PUBCHEM_SHAPE_FINGERPRINT>
10319926 262 16128665115472016481
117089 54 17984996886268560030
11991303 11 17680985185458541037
12166972 35 18060702814315594073
12422481 6 17060621114039796389
12553582 1 18336535062707531872
12760667 363 18342739598433623207
12788726 201 18341336604274631809
13402501 40 18272373027520435134
13533116 47 18130503123518400961
13551218 46 18343299258637352631
13617811 41 18113332042059210125
13685833 64 18273214184032636834
13782708 43 17417806271132653039
13862211 1 18342735226520919479
14211702 104 18198338662348273991
14347332 77 18412262800942653525
14528608 73 13479136791353921729
14617045 38 18409453578666483946
15183329 4 18343866619506408311
15348495 7 14836112291226078479
15537594 2 18335423499296255530
17349148 13 18060139851524593773
17857418 61 18341892978543120510
1813 80 17676481756996352580
18222031 100 18409443691583216237
19319366 153 17822005419868439874
20028762 73 17989200456369922103
20403669 9 18272654523976932166
21150785 3 14490478603885440513
21267235 1 18412268311105657927
21279426 13 18338504258501299525
21304303 94 17894635855490815786
21682296 61 18341615893603481855
2215653 11 18409725179771577799
22950370 63 18409735027883894808
23522609 53 18126036864448231593
23559900 14 18339359794015940873
23569943 247 18271527473220197539
2748736 6 8502376611831868639
3004659 81 18259985947075903742
3383291 50 18410289203378010163
3411729 13 17559947900514790568
3472631 163 10737297835235048770
34797466 226 16298676052775899301
351380 3 18412825776486023695
4073 2 18267865180175131416
46194498 28 17240484736528262852
465052 167 18202284684735341734
5104073 3 17917988343544356776
5372103 7 16009893791224154532
54039377 194 18264492785378394174
6138700 20 18411982425867694303
960060 61 18260832609525696052

> <PUBCHEM_SHAPE_MULTIPOLES>
502.98
16.35
2.68
1.36
9.2
0.09
0.04
7.67
-3.11
-1.61
0.26
-1.72
-0.11
-0.52

> <PUBCHEM_SHAPE_SELFOVERLAP>
1086.078

> <PUBCHEM_SHAPE_VOLUME>
278.5

> <PUBCHEM_COORDINATE_TYPE>
2
5
10

$$$$
90354261
  -OEChem-05102415133D

 55 57  0     0  0  0  0  0  0999 V2000
   -5.0244   -4.3606    1.6509 Cl  0  0  0  0  0  0  0  0  0  0  0  0
   -3.8744    0.8948    0.9936 S   0  0  0  0  0  0  0  0  0  0  0  0
   -4.7384    0.9035    2.1615 O   0  0  0  0  0  0  0  0  0  0  0  0
   -2.5580    1.5059    1.0528 O   0  0  0  0  0  0  0  0  0  0  0  0
    3.5769    1.2976    1.5223 O   0  0  0  0  0  0  0  0  0  0  0  0
    0.2284   -0.3961   -3.0444 O   0  0  0  0  0  0  0  0  0  0  0  0
   -0.6317   -0.0360   -0.9206 N   0  0  0  0  0  0  0  0  0  0  0  0
    7.8665    0.2459    0.3788 N   0  0  0  0  0  0  0  0  0  0  0  0
    7.5597   -0.3064    1.5650 N   0  0  0  0  0  0  0  0  0  0  0  0
   -4.7728    1.6107   -0.3468 C   0  0  0  0  0  0  0  0  0  0  0  0
   -5.0895    3.0916   -0.1287 C   0  0  0  0  0  0  0  0  0  0  0  0
   -3.6399   -0.7875    0.5027 C   0  0  0  0  0  0  0  0  0  0  0  0
   -2.7800   -1.1211   -0.5439 C   0  0  0  0  0  0  0  0  0  0  0  0
   -3.7894    3.8822    0.0289 C   0  0  0  0  0  0  0  0  0  0  0  0
   -5.9119    3.6766   -1.2784 C   0  0  0  0  0  0  0  0  0  0  0  0
   -2.0226   -0.0728   -1.2916 C   0  0  0  0  0  0  0  0  0  0  0  0
   -4.3337   -1.7894    1.1815 C   0  0  0  0  0  0  0  0  0  0  0  0
   -2.6141   -2.4564   -0.9117 C   0  0  0  0  0  0  0  0  0  0  0  0
   -4.1676   -3.1247    0.8139 C   0  0  0  0  0  0  0  0  0  0  0  0
   -3.3077   -3.4583   -0.2327 C   0  0  0  0  0  0  0  0  0  0  0  0
    0.3932   -0.2034   -1.8426 C   0  0  0  0  0  0  0  0  0  0  0  0
    1.7741   -0.1652   -1.2963 C   0  0  0  0  0  0  0  0  0  0  0  0
    4.3671   -0.0969   -0.2690 C   0  0  0  0  0  0  0  0  0  0  0  0
    2.0441    0.5528   -0.1312 C   0  0  0  0  0  0  0  0  0  0  0  0
    3.3405    0.5871    0.3825 C   0  0  0  0  0  0  0  0  0  0  0  0
    2.8006   -0.8490   -1.9478 C   0  0  0  0  0  0  0  0  0  0  0  0
    4.0971   -0.8146   -1.4343 C   0  0  0  0  0  0  0  0  0  0  0  0
    5.7104   -0.0763    0.2443 C   0  0  0  0  0  0  0  0  0  0  0  0
    6.7940    0.4052   -0.4488 C   0  0  0  0  0  0  0  0  0  0  0  0
    6.2413   -0.5010    1.4770 C   0  0  0  0  0  0  0  0  0  0  0  0
    2.4621    1.9616    2.1130 C   0  0  0  0  0  0  0  0  0  0  0  0
   -4.2541    1.4740   -1.2942 H   0  0  0  0  0  0  0  0  0  0  0  0
   -5.7136    1.0509   -0.4159 H   0  0  0  0  0  0  0  0  0  0  0  0
   -5.6736    3.2074    0.7929 H   0  0  0  0  0  0  0  0  0  0  0  0
   -3.9782    4.9565   -0.0832 H   0  0  0  0  0  0  0  0  0  0  0  0
   -3.3599    3.7643    1.0274 H   0  0  0  0  0  0  0  0  0  0  0  0
   -3.0445    3.6027   -0.7236 H   0  0  0  0  0  0  0  0  0  0  0  0
   -5.3629    3.6253   -2.2248 H   0  0  0  0  0  0  0  0  0  0  0  0
   -6.1633    4.7250   -1.0867 H   0  0  0  0  0  0  0  0  0  0  0  0
   -6.8499    3.1249   -1.4005 H   0  0  0  0  0  0  0  0  0  0  0  0
   -2.1115   -0.2938   -2.3634 H   0  0  0  0  0  0  0  0  0  0  0  0
   -2.3704    0.9499   -1.2095 H   0  0  0  0  0  0  0  0  0  0  0  0
   -5.0095   -1.5469    1.9971 H   0  0  0  0  0  0  0  0  0  0  0  0
   -1.9476   -2.7308   -1.7253 H   0  0  0  0  0  0  0  0  0  0  0  0
   -3.1686   -4.4945   -0.5301 H   0  0  0  0  0  0  0  0  0  0  0  0
   -0.4307    0.0744    0.0672 H   0  0  0  0  0  0  0  0  0  0  0  0
    1.2349    1.1098    0.3226 H   0  0  0  0  0  0  0  0  0  0  0  0
    2.6092   -1.4187   -2.8533 H   0  0  0  0  0  0  0  0  0  0  0  0
    4.8811   -1.3597   -1.9551 H   0  0  0  0  0  0  0  0  0  0  0  0
    6.9036    0.8395   -1.4330 H   0  0  0  0  0  0  0  0  0  0  0  0
    5.7260   -0.9453    2.3171 H   0  0  0  0  0  0  0  0  0  0  0  0
    8.8321    0.4913    0.1991 H   0  0  0  0  0  0  0  0  0  0  0  0
    2.8302    2.4633    3.0143 H   0  0  0  0  0  0  0  0  0  0  0  0
    1.6931    1.2536    2.4411 H   0  0  0  0  0  0  0  0  0  0  0  0
    2.0638    2.7453    1.4594 H   0  0  0  0  0  0  0  0  0  0  0  0
  1 19  1  0  0  0  0
  2  3  2  0  0  0  0
  2  4  2  0  0  0  0
  2 10  1  0  0  0  0
  2 12  1  0  0  0  0
  5 25  1  0  0  0  0
  5 31  1  0  0  0  0
  6 21  2  0  0  0  0
  7 16  1  0  0  0  0
  7 21  1  0  0  0  0
  7 46  1  0  0  0  0
  8  9  1  0  0  0  0
  8 29  1  0  0  0  0
  8 52  1  0  0  0  0
  9 30  2  0  0  0  0
 10 11  1  0  0  0  0
 10 32  1  0  0  0  0
 10 33  1  0  0  0  0
 11 14  1  0  0  0  0
 11 15  1  0  0  0  0
 11 34  1  0  0  0  0
 12 13  2  0  0  0  0
 12 17  1  0  0  0  0
 13 16  1  0  0  0  0
 13 18  1  0  0  0  0
 14 35  1  0  0  0  0
 14 36  1  0  0  0  0
 14 37  1  0  0  0  0
 15 38  1  0  0  0  0
 15 39  1  0  0  0  0
 15 40  1  0  0  0  0
 16 41  1  0  0  0  0
 16 42  1  0  0  0  0
 17 19  2  0  0  0  0
 17 43  1  0  0  0  0
 18 20  2  0  0  0  0
 18 44  1  0  0  0  0
 19 20  1  0  0  0  0
 20 45  1  0  0  0  0
 21 22  1  0  0  0  0
 22 24  2  0  0  0  0
 22 26  1  0  0  0  0
 23 25  2  0  0  0  0
 23 27  1  0  0  0  0
 23 28  1  0  0  0  0
 24 25  1  0  0  0  0
 24 47  1  0  0  0  0
 26 27  2  0  0  0  0
 26 48  1  0  0  0  0
 27 49  1  0  0  0  0
 28 29  2  0  0  0  0
 28 30  1  0  0  0  0
 29 50  1  0  0  0  0
 30 51  1  0  0  0  0
 31 53  1  0  0  0  0
 31 54  1  0  0  0  0
 31 55  1  0  0  0  0
M  END
> <PUBCHEM_COMPOUND_CID>
90354261

> <PUBCHEM_CONFORMER_RMSD>
1

> <PUBCHEM_CONFORMER_DIVERSEORDER>
6
118
117
89
69
5
30
109
94
97
77
14
107
39
74
116
72
45
16
111
91
81
105
108
106
104
76
63
80
17
64
44
56
46
28
41
114
71
90
47
67
95
75
103
98
60
20
9
65
66
8
35
53
79
21
85
87
59
96
24
13
37
62
25
110
99
100
73
92
3
112
26
61
15
32
115
70
29
31
18
52
86
12
33
40
83
19
10
38
101
2
78
27
22
36
43
93
55
42
4
1
50
113
48
11
102
51
49
82
57
58
7
88
84
23
54
68
34

> <PUBCHEM_MMFF94_PARTIAL_CHARGES>
38
1 -0.18
10 0.11
12 -0.01
13 -0.14
16 0.44
17 -0.15
18 -0.15
19 0.18
2 1.2
20 -0.15
21 0.54
22 0.09
23 0.05
24 -0.15
25 0.08
26 -0.15
27 -0.15
28 -0.05
29 -0.3
3 -0.65
30 0.14
31 0.28
4 -0.65
43 0.15
44 0.15
45 0.15
46 0.37
47 0.15
48 0.15
49 0.15
5 -0.36
50 0.15
51 0.15
52 0.27
6 -0.57
7 -0.73
8 0.3
9 -0.71

> <PUBCHEM_EFFECTIVE_ROTOR_COUNT>
9

> <PUBCHEM_PHARMACOPHORE_FEATURES>
11
1 3 acceptor
1 4 acceptor
1 5 acceptor
1 6 acceptor
1 7 donor
1 8 donor
1 9 acceptor
3 11 14 15 hydrophobe
5 8 9 28 29 30 rings
6 12 13 17 18 19 20 rings
6 22 23 24 25 26 27 rings

> <PUBCHEM_HEAVY_ATOM_COUNT>
31

> <PUBCHEM_ATOM_DEF_STEREO_COUNT>
0

> <PUBCHEM_ATOM_UDEF_STEREO_COUNT>
0

> <PUBCHEM_BOND_DEF_STEREO_COUNT>
0

> <PUBCHEM_BOND_UDEF_STEREO_COUNT>
0

> <PUBCHEM_ISOTOPIC_ATOM_COUNT>
0

> <PUBCHEM_COMPONENT_COUNT>
1

> <PUBCHEM_CACTVS_TAUTO_COUNT>
7

> <PUBCHEM_CONFORMER_ID>
0562B25500000006

> <PUBCHEM_MMFF94_ENERGY>
79.7586

> <PUBCHEM_FEATURE_SELFOVERLAP>
55.841

> <PUBCHEM_SHAPE_FINGERPRINT>
10319926 262 18341906194273905398
10554248 39 14333132975534947028
10675989 125 17191235123744979897
11227688 84 13624639456458128424
11377469 6 17459465740006504887
11443803 9 17895755085777937153
11545043 162 18340204184570250546
12128747 34 18342177717668985831
12988421 55 18197789812845870921
13583140 156 18131914866483830095
13782708 43 17386550424563248330
14844126 61 18337957895812081539
14950920 106 18268425922442087378
15081414 286 16486987210916974732
15142383 8 18340760452435812900
15183329 4 13830136079613693140
15188451 53 18189334739736822183
15326921 28 18044366128869457677
15336146 87 18200028589680482684
15484559 13 14105488747088036715
16067689 68 18041548158287939962
17780758 139 18334856151528535703
20554085 129 18191301573371962213
21033648 144 17632016338822615485
21033648 29 18194695774019185909
21304303 282 18335413523337486863
23522609 53 17387155155520727948
2838139 119 11887957674937270138
312425 54 18187643562320489666
4015057 19 17274813650085089521
4169191 19 15122933137100968242
4366758 6 18115300052736896637
4403749 210 18129932481906072270
484985 159 17967806189624506327
4938544 92 18408884027263699037
5028188 123 18187938270661080718
6009941 240 18340768157226931186
6086070 43 16558167359888957158
6691757 9 18261110743381892765
6697151 62 16841650994141733334

> <PUBCHEM_SHAPE_MULTIPOLES>
605.26
18.57
4.18
2.1
28.08
0.56
0.3
-2.21
-6.74
-13.58
-0.94
0.71
0.11
2.39

> <PUBCHEM_SHAPE_SELFOVERLAP>
1274.603

> <PUBCHEM_SHAPE_VOLUME>
343.5

> <PUBCHEM_COORDINATE_TYPE>
2
5
10

$$$$
90354077
  -OEChem-05102415133D

 44 46  0     0  0  0  0  0  0999 V2000
    2.7628   -1.3055   -1.4759 F   0  0  0  0  0  0  0  0  0  0  0  0
    4.3540    2.7110    0.4868 F   0  0  0  0  0  0  0  0  0  0  0  0
   -2.8055   -1.8354   -0.5720 O   0  0  0  0  0  0  0  0  0  0  0  0
    4.4756   -2.7651    0.0947 O   0  0  0  0  0  0  0  0  0  0  0  0
    0.7805    2.7339    0.4806 O   0  0  0  0  0  0  0  0  0  0  0  0
    1.2180    1.1454   -1.1511 N   0  0  0  0  0  0  0  0  0  0  0  0
   -7.0839   -0.3613    0.0088 N   0  0  0  0  0  0  0  0  0  0  0  0
   -6.7959   -1.3044    0.9219 N   0  0  0  0  0  0  0  0  0  0  0  0
    2.5979    1.5118   -1.3762 C   0  0  0  0  0  0  0  0  0  0  0  0
   -3.5775    0.3229    0.1514 C   0  0  0  0  0  0  0  0  0  0  0  0
   -0.9711    1.2862   -0.0976 C   0  0  0  0  0  0  0  0  0  0  0  0
    3.5375    0.7191   -0.5141 C   0  0  0  0  0  0  0  0  0  0  0  0
   -2.5568   -0.5284   -0.2721 C   0  0  0  0  0  0  0  0  0  0  0  0
   -1.2536   -0.0467   -0.3966 C   0  0  0  0  0  0  0  0  0  0  0  0
   -3.2950    1.6559    0.4501 C   0  0  0  0  0  0  0  0  0  0  0  0
    0.3878    1.7881   -0.2255 C   0  0  0  0  0  0  0  0  0  0  0  0
   -4.9276   -0.1534    0.2882 C   0  0  0  0  0  0  0  0  0  0  0  0
   -1.9918    2.1375    0.3259 C   0  0  0  0  0  0  0  0  0  0  0  0
    3.5698   -0.6719   -0.6124 C   0  0  0  0  0  0  0  0  0  0  0  0
    4.3782    1.3745    0.3856 C   0  0  0  0  0  0  0  0  0  0  0  0
    4.4426   -1.4077    0.1893 C   0  0  0  0  0  0  0  0  0  0  0  0
    5.2511    0.6389    1.1873 C   0  0  0  0  0  0  0  0  0  0  0  0
   -5.9994    0.3560   -0.4035 C   0  0  0  0  0  0  0  0  0  0  0  0
    5.2831   -0.7522    1.0892 C   0  0  0  0  0  0  0  0  0  0  0  0
   -5.4773   -1.1727    1.0886 C   0  0  0  0  0  0  0  0  0  0  0  0
   -1.6958   -2.6237   -0.9959 C   0  0  0  0  0  0  0  0  0  0  0  0
    5.3924   -3.4529    0.9446 C   0  0  0  0  0  0  0  0  0  0  0  0
    2.7083    2.5887   -1.2096 H   0  0  0  0  0  0  0  0  0  0  0  0
    2.8239    1.3220   -2.4316 H   0  0  0  0  0  0  0  0  0  0  0  0
   -0.4306   -0.6907   -0.6786 H   0  0  0  0  0  0  0  0  0  0  0  0
    0.8472    0.4135   -1.7475 H   0  0  0  0  0  0  0  0  0  0  0  0
   -4.0746    2.3361    0.7855 H   0  0  0  0  0  0  0  0  0  0  0  0
   -1.7925    3.1799    0.5606 H   0  0  0  0  0  0  0  0  0  0  0  0
    5.9050    1.1505    1.8875 H   0  0  0  0  0  0  0  0  0  0  0  0
   -6.0935    1.1446   -1.1372 H   0  0  0  0  0  0  0  0  0  0  0  0
    5.9846   -1.2608    1.7415 H   0  0  0  0  0  0  0  0  0  0  0  0
   -4.9757   -1.8266    1.7882 H   0  0  0  0  0  0  0  0  0  0  0  0
   -8.0458   -0.2610   -0.2904 H   0  0  0  0  0  0  0  0  0  0  0  0
   -1.2677   -2.2535   -1.9339 H   0  0  0  0  0  0  0  0  0  0  0  0
   -0.9476   -2.7306   -0.2029 H   0  0  0  0  0  0  0  0  0  0  0  0
   -2.0785   -3.6290   -1.2022 H   0  0  0  0  0  0  0  0  0  0  0  0
    5.2851   -4.5226    0.7369 H   0  0  0  0  0  0  0  0  0  0  0  0
    5.1480   -3.3068    2.0022 H   0  0  0  0  0  0  0  0  0  0  0  0
    6.4301   -3.1859    0.7171 H   0  0  0  0  0  0  0  0  0  0  0  0
  1 19  1  0  0  0  0
  2 20  1  0  0  0  0
  3 13  1  0  0  0  0
  3 26  1  0  0  0  0
  4 21  1  0  0  0  0
  4 27  1  0  0  0  0
  5 16  2  0  0  0  0
  6  9  1  0  0  0  0
  6 16  1  0  0  0  0
  6 31  1  0  0  0  0
  7  8  1  0  0  0  0
  7 23  1  0  0  0  0
  7 38  1  0  0  0  0
  8 25  2  0  0  0  0
  9 12  1  0  0  0  0
  9 28  1  0  0  0  0
  9 29  1  0  0  0  0
 10 13  2  0  0  0  0
 10 15  1  0  0  0  0
 10 17  1  0  0  0  0
 11 14  2  0  0  0  0
 11 16  1  0  0  0  0
 11 18  1  0  0  0  0
 12 19  1  0  0  0  0
 12 20  2  0  0  0  0
 13 14  1  0  0  0  0
 14 30  1  0  0  0  0
 15 18  2  0  0  0  0
 15 32  1  0  0  0  0
 17 23  2  0  0  0  0
 17 25  1  0  0  0  0
 18 33  1  0  0  0  0
 19 21  2  0  0  0  0
 20 22  1  0  0  0  0
 21 24  1  0  0  0  0
 22 24  2  0  0  0  0
 22 34  1  0  0  0  0
 23 35  1  0  0  0  0
 24 36  1  0  0  0  0
 25 37  1  0  0  0  0
 26 39  1  0  0  0  0
 26 40  1  0  0  0  0
 26 41  1  0  0  0  0
 27 42  1  0  0  0  0
 27 43  1  0  0  0  0
 27 44  1  0  0  0  0
M  END
> <PUBCHEM_COMPOUND_CID>
90354077

> <PUBCHEM_CONFORMER_RMSD>
0.8

> <PUBCHEM_CONFORMER_DIVERSEORDER>
12
44
120
105
108
118
110
106
96
113
71
64
109
7
38
73
32
103
123
104
61
30
126
51
114
89
36
98
28
72
79
22
17
122
69
99
49
94
16
86
90
117
119
45
76
74
50
37
111
77
59
78
87
125
41
8
52
88
67
34
112
4
9
107
124
57
53
56
95
23
82
81
102
60
20
91
48
115
11
63
85
54
19
100
25
10
83
29
27
70
66
92
65
68
26
62
55
84
15
33
39
14
1
24
42
58
43
47
93
5
116
46
35
80
2
13
97
18
31
75
121
21
3
40
101
6

> <PUBCHEM_MMFF94_PARTIAL_CHARGES>
36
1 -0.19
10 0.05
11 0.09
12 -0.14
13 0.08
14 -0.15
15 -0.15
16 0.54
17 -0.05
18 -0.15
19 0.19
2 -0.19
20 0.19
21 0.08
22 -0.15
23 -0.3
24 -0.15
25 0.14
26 0.28
27 0.28
3 -0.36
30 0.15
31 0.37
32 0.15
33 0.15
34 0.15
35 0.15
36 0.15
37 0.15
38 0.27
4 -0.36
5 -0.57
6 -0.73
7 0.3
8 -0.71
9 0.44

> <PUBCHEM_EFFECTIVE_ROTOR_COUNT>
7

> <PUBCHEM_PHARMACOPHORE_FEATURES>
9
1 3 acceptor
1 4 acceptor
1 5 acceptor
1 6 donor
1 7 donor
1 8 acceptor
5 7 8 17 23 25 rings
6 10 11 13 14 15 18 rings
6 12 19 20 21 22 24 rings

> <PUBCHEM_HEAVY_ATOM_COUNT>
27

> <PUBCHEM_ATOM_DEF_STEREO_COUNT>
0

> <PUBCHEM_ATOM_UDEF_STEREO_COUNT>
0

> <PUBCHEM_BOND_DEF_STEREO_COUNT>
0

> <PUBCHEM_BOND_UDEF_STEREO_COUNT>
0

> <PUBCHEM_ISOTOPIC_ATOM_COUNT>
0

> <PUBCHEM_COMPONENT_COUNT>
1

> <PUBCHEM_CACTVS_TAUTO_COUNT>
7

> <PUBCHEM_CONFORMER_ID>
0562B19D0000000C

> <PUBCHEM_MMFF94_ENERGY>
81.134

> <PUBCHEM_FEATURE_SELFOVERLAP>
45.673

> <PUBCHEM_SHAPE_FINGERPRINT>
11756154 67 18264492772208526014
11796584 16 17313384569305221225
12107183 9 18052543162300580832
12236239 1 18113899385959288649
12633257 1 16845280653469517962
13073987 5 18413109450671242985
13533116 47 18409449189341432040
13551218 46 18410293601487057639
13782708 43 17313109700410308851
13862211 1 18341895221338884495
14211702 104 18187656833669136531
14251740 57 18337112272453750202
14341114 176 18273211972599265576
15183329 4 18410303506119596301
17492 89 18265050241761792536
17857418 61 18342457075685423981
1813 80 17603588529963368012
1979834 28 17775011163141156838
20028762 73 18338515227610961690
208703 8 17825092724139471266
21033648 29 15051454868772270921
21130935 74 18410578401143132235
21267235 1 18411989039969299326
21279426 13 18261952947534429333
21424621 283 14332592007203183867
21682296 61 18335707087871824515
21792934 111 18341605972186758945
21859007 373 18042106697088629413
23559900 14 18128816537174941289
3004659 81 18260838111099409492
3383291 50 18408888451624054283
3472631 163 9511453429386860640
3680242 22 18411427193559053723
3886686 26 17405714675078298050
5104073 3 18272376321617881169
56633871 153 18340764849491008806
5718773 13 18042963178044565506
6823239 73 17774177742491886612
8988823 20 18272087231722306272

> <PUBCHEM_SHAPE_MULTIPOLES>
508.55
16.66
3.11
1.11
10.49
1.11
-0.09
7.74
5.08
-3.64
0.26
-0.6
0.16
-0.35

> <PUBCHEM_SHAPE_SELFOVERLAP>
1110.109

> <PUBCHEM_SHAPE_VOLUME>
277.9

> <PUBCHEM_COORDINATE_TYPE>
2
5
10

$$$$
118663037
  -OEChem-05102415133D

 46 48  0     0  0  0  0  0  0999 V2000
    1.3248   -2.4154   -0.6004 F   0  0  0  0  0  0  0  0  0  0  0  0
    2.8029   -2.5531   -2.1815 F   0  0  0  0  0  0  0  0  0  0  0  0
    3.0161   -3.7654   -0.3890 F   0  0  0  0  0  0  0  0  0  0  0  0
   -1.9960   -1.3820    0.8169 O   0  0  0  0  0  0  0  0  0  0  0  0
    0.5409    3.5623   -1.1963 O   0  0  0  0  0  0  0  0  0  0  0  0
    1.4024    2.3326    0.5708 N   0  0  0  0  0  0  0  0  0  0  0  0
   -6.5086   -0.8119    0.4687 N   0  0  0  0  0  0  0  0  0  0  0  0
   -6.1116   -1.8212   -0.3250 N   0  0  0  0  0  0  0  0  0  0  0  0
    3.7356    2.3471   -0.2472 C   0  0  0  0  0  0  0  0  0  0  0  0
    2.6796    3.0060    0.6369 C   0  0  0  0  0  0  0  0  0  0  0  0
    3.9838    0.9021    0.1100 C   0  0  0  0  0  0  0  0  0  0  0  0
   -0.8383    1.9042   -0.2764 C   0  0  0  0  0  0  0  0  0  0  0  0
    3.2373   -0.1056   -0.5006 C   0  0  0  0  0  0  0  0  0  0  0  0
   -3.2202    0.4593   -0.1258 C   0  0  0  0  0  0  0  0  0  0  0  0
    4.9600    0.5743    1.0510 C   0  0  0  0  0  0  0  0  0  0  0  0
    3.4668   -1.4413   -0.1704 C   0  0  0  0  0  0  0  0  0  0  0  0
    0.4027    2.6584   -0.3532 C   0  0  0  0  0  0  0  0  0  0  0  0
   -2.0268   -0.1154    0.3120 C   0  0  0  0  0  0  0  0  0  0  0  0
   -0.8360    0.6070    0.2367 C   0  0  0  0  0  0  0  0  0  0  0  0
   -2.0316    2.4788   -0.7143 C   0  0  0  0  0  0  0  0  0  0  0  0
   -3.2224    1.7563   -0.6392 C   0  0  0  0  0  0  0  0  0  0  0  0
   -4.4593   -0.2671   -0.0556 C   0  0  0  0  0  0  0  0  0  0  0  0
    5.1894   -0.7614    1.3815 C   0  0  0  0  0  0  0  0  0  0  0  0
    4.4431   -1.7692    0.7707 C   0  0  0  0  0  0  0  0  0  0  0  0
    2.6683   -2.5190   -0.8227 C   0  0  0  0  0  0  0  0  0  0  0  0
   -5.5559    0.1449    0.6617 C   0  0  0  0  0  0  0  0  0  0  0  0
   -4.8590   -1.4829   -0.6421 C   0  0  0  0  0  0  0  0  0  0  0  0
   -2.1880   -1.5224    2.2225 C   0  0  0  0  0  0  0  0  0  0  0  0
    3.4333    2.4093   -1.3008 H   0  0  0  0  0  0  0  0  0  0  0  0
    4.6753    2.9088   -0.1734 H   0  0  0  0  0  0  0  0  0  0  0  0
    2.9929    2.9930    1.6867 H   0  0  0  0  0  0  0  0  0  0  0  0
    2.5481    4.0516    0.3382 H   0  0  0  0  0  0  0  0  0  0  0  0
    1.2293    1.6302    1.2818 H   0  0  0  0  0  0  0  0  0  0  0  0
    2.4773    0.1449   -1.2369 H   0  0  0  0  0  0  0  0  0  0  0  0
    5.5466    1.3506    1.5349 H   0  0  0  0  0  0  0  0  0  0  0  0
    0.0787    0.1161    0.5574 H   0  0  0  0  0  0  0  0  0  0  0  0
   -2.0555    3.4894   -1.1137 H   0  0  0  0  0  0  0  0  0  0  0  0
   -4.1406    2.2226   -0.9893 H   0  0  0  0  0  0  0  0  0  0  0  0
    5.9490   -1.0164    2.1147 H   0  0  0  0  0  0  0  0  0  0  0  0
    4.6373   -2.8031    1.0422 H   0  0  0  0  0  0  0  0  0  0  0  0
   -5.7463    1.0103    1.2815 H   0  0  0  0  0  0  0  0  0  0  0  0
   -4.2930   -2.1392   -1.2883 H   0  0  0  0  0  0  0  0  0  0  0  0
   -7.4471   -0.8397    0.8472 H   0  0  0  0  0  0  0  0  0  0  0  0
   -3.1459   -1.0952    2.5343 H   0  0  0  0  0  0  0  0  0  0  0  0
   -1.3694   -1.0421    2.7679 H   0  0  0  0  0  0  0  0  0  0  0  0
   -2.1878   -2.5892    2.4626 H   0  0  0  0  0  0  0  0  0  0  0  0
  1 25  1  0  0  0  0
  2 25  1  0  0  0  0
  3 25  1  0  0  0  0
  4 18  1  0  0  0  0
  4 28  1  0  0  0  0
  5 17  2  0  0  0  0
  6 10  1  0  0  0  0
  6 17  1  0  0  0  0
  6 33  1  0  0  0  0
  7  8  1  0  0  0  0
  7 26  1  0  0  0  0
  7 43  1  0  0  0  0
  8 27  2  0  0  0  0
  9 10  1  0  0  0  0
  9 11  1  0  0  0  0
  9 29  1  0  0  0  0
  9 30  1  0  0  0  0
 10 31  1  0  0  0  0
 10 32  1  0  0  0  0
 11 13  2  0  0  0  0
 11 15  1  0  0  0  0
 12 17  1  0  0  0  0
 12 19  2  0  0  0  0
 12 20  1  0  0  0  0
 13 16  1  0  0  0  0
 13 34  1  0  0  0  0
 14 18  2  0  0  0  0
 14 21  1  0  0  0  0
 14 22  1  0  0  0  0
 15 23  2  0  0  0  0
 15 35  1  0  0  0  0
 16 24  2  0  0  0  0
 16 25  1  0  0  0  0
 18 19  1  0  0  0  0
 19 36  1  0  0  0  0
 20 21  2  0  0  0  0
 20 37  1  0  0  0  0
 21 38  1  0  0  0  0
 22 26  2  0  0  0  0
 22 27  1  0  0  0  0
 23 24  1  0  0  0  0
 23 39  1  0  0  0  0
 24 40  1  0  0  0  0
 26 41  1  0  0  0  0
 27 42  1  0  0  0  0
 28 44  1  0  0  0  0
 28 45  1  0  0  0  0
 28 46  1  0  0  0  0
M  END
> <PUBCHEM_COMPOUND_CID>
118663037

> <PUBCHEM_CONFORMER_RMSD>
1

> <PUBCHEM_CONFORMER_DIVERSEORDER>
1
23
42
13
47
53
18
44
14
29
15
21
52
25
39
7
24
17
34
12
43
20
48
6
11
56
22
50
33
41
55
36
9
4
19
51
58
32
54
10
40
5
46
8
49
26
45
31
2
35
16
28
38
37
27
30
3
57

> <PUBCHEM_MMFF94_PARTIAL_CHARGES>
39
1 -0.34
10 0.3
11 -0.14
12 0.09
13 -0.15
14 0.05
15 -0.15
16 -0.14
17 0.54
18 0.08
19 -0.15
2 -0.34
20 -0.15
21 -0.15
22 -0.05
23 -0.15
24 -0.15
25 1.16
26 -0.3
27 0.14
28 0.28
3 -0.34
33 0.37
34 0.15
35 0.15
36 0.15
37 0.15
38 0.15
39 0.15
4 -0.36
40 0.15
41 0.15
42 0.15
43 0.27
5 -0.57
6 -0.73
7 0.3
8 -0.71
9 0.14

> <PUBCHEM_EFFECTIVE_ROTOR_COUNT>
8

> <PUBCHEM_PHARMACOPHORE_FEATURES>
8
1 4 acceptor
1 5 acceptor
1 6 donor
1 7 donor
1 8 acceptor
5 7 8 22 26 27 rings
6 11 13 15 16 23 24 rings
6 12 14 18 19 20 21 rings

> <PUBCHEM_HEAVY_ATOM_COUNT>
28

> <PUBCHEM_ATOM_DEF_STEREO_COUNT>
0

> <PUBCHEM_ATOM_UDEF_STEREO_COUNT>
0

> <PUBCHEM_BOND_DEF_STEREO_COUNT>
0

> <PUBCHEM_BOND_UDEF_STEREO_COUNT>
0

> <PUBCHEM_ISOTOPIC_ATOM_COUNT>
0

> <PUBCHEM_COMPONENT_COUNT>
1

> <PUBCHEM_CACTVS_TAUTO_COUNT>
27

> <PUBCHEM_CONFORMER_ID>
0712A77D00000001

> <PUBCHEM_MMFF94_ENERGY>
69.6498

> <PUBCHEM_FEATURE_SELFOVERLAP>
40.597

> <PUBCHEM_SHAPE_FINGERPRINT>
10366900 7 18334590026960035294
108634 29 18187089421107551058
11828532 37 17459194139307197563
12107183 9 17984436144049063481
12166972 35 17168145607299802342
12422481 6 18200607886828051761
12596602 18 16486971846901059408
12645989 146 18340487751655938110
13150687 139 17972623219233904076
13402501 40 18408600349253459104
13533116 47 18270400611066126865
1361 2 18339640165302100931
14117953 113 18342739602671017102
14251740 57 18059866029873721486
14347332 77 18408316701345634629
14617045 38 18337679718868879748
14725015 67 18261943064466288066
14840074 17 18130786793465843943
15250474 111 17987788756770572391
15635459 17 18409735053864312072
15840311 113 17558288544394836929
15927050 60 17550103006301070332
17492 89 18194115223120876274
17857418 61 18412821421784928285
1813 80 17821736026645009453
19301679 30 18408327709652633169
1979834 28 18131348609737769986
19930381 70 18339079289707107367
20403669 9 18334294262289365024
20645477 70 18409728491154686448
21133410 32 16521371104203004466
21197605 99 18196934580908005982
21279426 13 18187635882908454101
21285901 2 18040991869206354013
21315764 371 17060336387604458890
21781051 124 16226343603107600883
23559900 14 18116434928028375089
3004659 81 17894909633701560680
404807 14 17767701459806373115
463206 1 18198337557997755735
5309563 4 18412260623478610772
5326457 24 18128818719724891015
6823239 73 18127980715712487366
9709674 26 18336268942355091850

> <PUBCHEM_SHAPE_MULTIPOLES>
527.72
13.25
4
1.27
10.39
0.54
-0.15
-6.32
-2.1
-3.23
1.15
-0.45
-0.65
1.11

> <PUBCHEM_SHAPE_SELFOVERLAP>
1145.335

> <PUBCHEM_SHAPE_VOLUME>
289.9

> <PUBCHEM_COORDINATE_TYPE>
2
5
10

$$$$
118663081
  -OEChem-05102415133D

 46 48  0     0  0  0  0  0  0999 V2000
    5.9686   -0.1110   -1.9570 F   0  0  0  0  0  0  0  0  0  0  0  0
   -2.9381   -1.8430    0.5262 O   0  0  0  0  0  0  0  0  0  0  0  0
    0.1874    3.1266   -0.1599 O   0  0  0  0  0  0  0  0  0  0  0  0
    4.0325   -2.6046    0.5977 O   0  0  0  0  0  0  0  0  0  0  0  0
    6.1349   -2.1997   -0.2477 O   0  0  0  0  0  0  0  0  0  0  0  0
    0.7972    1.4476    1.3187 N   0  0  0  0  0  0  0  0  0  0  0  0
   -7.1018   -0.9297   -1.1000 N   0  0  0  0  0  0  0  0  0  0  0  0
   -7.1926   -1.3941    0.1579 N   0  0  0  0  0  0  0  0  0  0  0  0
   -3.9133    0.2827   -0.0292 C   0  0  0  0  0  0  0  0  0  0  0  0
    2.1225    1.9486    1.6042 C   0  0  0  0  0  0  0  0  0  0  0  0
   -1.4038    1.4616    0.2807 C   0  0  0  0  0  0  0  0  0  0  0  0
    3.1480    1.3966    0.6568 C   0  0  0  0  0  0  0  0  0  0  0  0
   -2.8142   -0.4996    0.3257 C   0  0  0  0  0  0  0  0  0  0  0  0
   -1.5595    0.0899    0.4807 C   0  0  0  0  0  0  0  0  0  0  0  0
   -3.7575    1.6543   -0.2295 C   0  0  0  0  0  0  0  0  0  0  0  0
   -5.2159   -0.3043   -0.1925 C   0  0  0  0  0  0  0  0  0  0  0  0
   -0.0963    2.0769    0.4441 C   0  0  0  0  0  0  0  0  0  0  0  0
   -2.5029    2.2439   -0.0743 C   0  0  0  0  0  0  0  0  0  0  0  0
    3.5920    0.0816    0.7976 C   0  0  0  0  0  0  0  0  0  0  0  0
    3.6564    2.1987   -0.3650 C   0  0  0  0  0  0  0  0  0  0  0  0
    4.5445   -0.4309   -0.0832 C   0  0  0  0  0  0  0  0  0  0  0  0
    4.6090    1.6863   -1.2456 C   0  0  0  0  0  0  0  0  0  0  0  0
    5.0531    0.3713   -1.1047 C   0  0  0  0  0  0  0  0  0  0  0  0
   -5.9372   -0.2695   -1.3610 C   0  0  0  0  0  0  0  0  0  0  0  0
   -6.0377   -1.0090    0.7074 C   0  0  0  0  0  0  0  0  0  0  0  0
    5.0049   -1.8024    0.0658 C   0  0  0  0  0  0  0  0  0  0  0  0
   -2.7467   -2.6859   -0.6076 C   0  0  0  0  0  0  0  0  0  0  0  0
    4.3665   -3.9827    0.7938 C   0  0  0  0  0  0  0  0  0  0  0  0
    2.3716    1.6645    2.6331 H   0  0  0  0  0  0  0  0  0  0  0  0
    2.1076    3.0441    1.5706 H   0  0  0  0  0  0  0  0  0  0  0  0
   -0.7203   -0.5547    0.7276 H   0  0  0  0  0  0  0  0  0  0  0  0
    0.5106    0.6221    1.8338 H   0  0  0  0  0  0  0  0  0  0  0  0
   -4.6018    2.2839   -0.5012 H   0  0  0  0  0  0  0  0  0  0  0  0
   -2.4039    3.3151   -0.2291 H   0  0  0  0  0  0  0  0  0  0  0  0
    3.1935   -0.5250    1.6075 H   0  0  0  0  0  0  0  0  0  0  0  0
    3.3183    3.2242   -0.4876 H   0  0  0  0  0  0  0  0  0  0  0  0
    5.0048    2.3104   -2.0414 H   0  0  0  0  0  0  0  0  0  0  0  0
   -5.7370    0.1524   -2.3363 H   0  0  0  0  0  0  0  0  0  0  0  0
   -5.8472   -1.2596    1.7416 H   0  0  0  0  0  0  0  0  0  0  0  0
   -7.8747   -1.1000   -1.7313 H   0  0  0  0  0  0  0  0  0  0  0  0
   -2.9280   -3.7193   -0.2997 H   0  0  0  0  0  0  0  0  0  0  0  0
   -3.4474   -2.4332   -1.4093 H   0  0  0  0  0  0  0  0  0  0  0  0
   -1.7176   -2.6059   -0.9719 H   0  0  0  0  0  0  0  0  0  0  0  0
    3.4955   -4.4869    1.2205 H   0  0  0  0  0  0  0  0  0  0  0  0
    5.2033   -4.0719    1.4928 H   0  0  0  0  0  0  0  0  0  0  0  0
    4.6113   -4.4512   -0.1640 H   0  0  0  0  0  0  0  0  0  0  0  0
  1 23  1  0  0  0  0
  2 13  1  0  0  0  0
  2 27  1  0  0  0  0
  3 17  2  0  0  0  0
  4 26  1  0  0  0  0
  4 28  1  0  0  0  0
  5 26  2  0  0  0  0
  6 10  1  0  0  0  0
  6 17  1  0  0  0  0
  6 32  1  0  0  0  0
  7  8  1  0  0  0  0
  7 24  1  0  0  0  0
  7 40  1  0  0  0  0
  8 25  2  0  0  0  0
  9 13  2  0  0  0  0
  9 15  1  0  0  0  0
  9 16  1  0  0  0  0
 10 12  1  0  0  0  0
 10 29  1  0  0  0  0
 10 30  1  0  0  0  0
 11 14  2  0  0  0  0
 11 17  1  0  0  0  0
 11 18  1  0  0  0  0
 12 19  2  0  0  0  0
 12 20  1  0  0  0  0
 13 14  1  0  0  0  0
 14 31  1  0  0  0  0
 15 18  2  0  0  0  0
 15 33  1  0  0  0  0
 16 24  2  0  0  0  0
 16 25  1  0  0  0  0
 18 34  1  0  0  0  0
 19 21  1  0  0  0  0
 19 35  1  0  0  0  0
 20 22  2  0  0  0  0
 20 36  1  0  0  0  0
 21 23  2  0  0  0  0
 21 26  1  0  0  0  0
 22 23  1  0  0  0  0
 22 37  1  0  0  0  0
 24 38  1  0  0  0  0
 25 39  1  0  0  0  0
 27 41  1  0  0  0  0
 27 42  1  0  0  0  0
 27 43  1  0  0  0  0
 28 44  1  0  0  0  0
 28 45  1  0  0  0  0
 28 46  1  0  0  0  0
M  END
> <PUBCHEM_COMPOUND_CID>
118663081

> <PUBCHEM_CONFORMER_RMSD>
1

> <PUBCHEM_CONFORMER_DIVERSEORDER>
2
33
53
46
42
24
40
66
38
9
58
37
11
59
16
34
48
20
12
39
29
57
10
62
56
64
31
17
67
52
22
5
25
47
15
30
28
35
19
21
60
13
61
41
68
4
1
50
49
7
27
32
45
54
23
55
43
26
36
63
3
6
65
8
14
51
18
44

> <PUBCHEM_MMFF94_PARTIAL_CHARGES>
38
1 -0.19
10 0.44
11 0.09
12 -0.14
13 0.08
14 -0.15
15 -0.15
16 -0.05
17 0.54
18 -0.15
19 -0.15
2 -0.36
20 -0.15
21 0.09
22 -0.15
23 0.19
24 -0.3
25 0.14
26 0.63
27 0.28
28 0.28
3 -0.57
31 0.15
32 0.37
33 0.15
34 0.15
35 0.15
36 0.15
37 0.15
38 0.15
39 0.15
4 -0.43
40 0.27
5 -0.57
6 -0.73
7 0.3
8 -0.71
9 0.05

> <PUBCHEM_EFFECTIVE_ROTOR_COUNT>
8

> <PUBCHEM_PHARMACOPHORE_FEATURES>
9
1 2 acceptor
1 3 acceptor
1 5 acceptor
1 6 donor
1 7 donor
1 8 acceptor
5 7 8 16 24 25 rings
6 12 19 20 21 22 23 rings
6 9 11 13 14 15 18 rings

> <PUBCHEM_HEAVY_ATOM_COUNT>
28

> <PUBCHEM_ATOM_DEF_STEREO_COUNT>
0

> <PUBCHEM_ATOM_UDEF_STEREO_COUNT>
0

> <PUBCHEM_BOND_DEF_STEREO_COUNT>
0

> <PUBCHEM_BOND_UDEF_STEREO_COUNT>
0

> <PUBCHEM_ISOTOPIC_ATOM_COUNT>
0

> <PUBCHEM_COMPONENT_COUNT>
1

> <PUBCHEM_CACTVS_TAUTO_COUNT>
9

> <PUBCHEM_CONFORMER_ID>
0712A7A900000002

> <PUBCHEM_MMFF94_ENERGY>
81.5164

> <PUBCHEM_FEATURE_SELFOVERLAP>
45.673

> <PUBCHEM_SHAPE_FINGERPRINT>
10622 236 17900814951867449082
117089 54 17771642165446961950
12760667 363 18273496771442963041
13383668 262 17095800035784228723
13533116 47 18410854377796403202
13782708 43 17846493760216762197
14347332 77 18341327812756248825
14617045 38 18411704321970598163
14849402 71 11599710776468025914
14866123 147 18055073151694358857
14910302 57 18337098029730552773
14931854 50 18261963951325323462
15183329 4 18335421274882978441
15250474 111 18410856538650535650
15348495 7 11743834785478429829
15510800 12 17846226501676838550
16628084 112 18263359210026889903
17134984 74 18335987540951942406
19958102 18 18334285466649984693
20403669 9 18202285801120935276
20567600 247 18412262813869337672
21279426 13 18336252467377742997
21304303 94 18113617898197760842
21585483 132 17915155014408520199
21682296 61 18413108368940344779
2215653 11 18341046419520813445
23522609 53 18055948521727052681
23559900 14 18267018543427188217
23569914 152 17617904000190835613
23569943 247 18271806788097208451
24771750 20 17102012418199616453
2748736 6 7853856079283494287
3004659 81 18259982657035892720
345986 75 17561083583480998728
34797466 226 16877947174138231237
3729539 64 18409163290865275003
397830 11 10951758733916973485
439807 62 18408887304518820507
46194498 28 17604146029687829756
465052 167 18060422425817954948
5081480 168 16299497461398337941
5104073 3 17560798809969866056
5109719 28 9006775445270876285
5364581 5 10663520648472564279
7808743 9 8285610102329830584
86090 222 15984565342160459092
960060 61 18334577970944695848

> <PUBCHEM_SHAPE_MULTIPOLES>
530.53
18.14
3.58
1.2
10.12
1.95
-0.18
10.81
-5.21
-4
0.57
-0.82
-0.18
-0.8

> <PUBCHEM_SHAPE_SELFOVERLAP>
1154.14

> <PUBCHEM_SHAPE_VOLUME>
290.8

> <PUBCHEM_COORDINATE_TYPE>
2
5
10

$$$$
118662957
  -OEChem-05102415133D

 41 43  0     1  0  0  0  0  0999 V2000
    5.0179   -0.8787    1.7494 F   0  0  0  0  0  0  0  0  0  0  0  0
    0.9852   -2.5286    0.5149 O   0  0  0  0  0  0  0  0  0  0  0  0
   -3.9608   -3.1411   -0.1580 O   0  0  0  0  0  0  0  0  0  0  0  0
    1.8635   -0.5746   -0.3724 N   0  0  0  0  0  0  0  0  0  0  0  0
   -6.2114    1.8977   -0.6310 N   0  0  0  0  0  0  0  0  0  0  0  0
   -6.3725    1.8702    0.7030 N   0  0  0  0  0  0  0  0  0  0  0  0
    3.2339   -1.0270   -0.4506 C   0  0  2  0  0  0  0  0  0  0  0  0
    4.2035    0.1170   -0.2456 C   0  0  0  0  0  0  0  0  0  0  0  0
    3.4804   -1.7739   -1.7597 C   0  0  0  0  0  0  0  0  0  0  0  0
   -0.5147   -0.7740    0.1031 C   0  0  0  0  0  0  0  0  0  0  0  0
    0.8145   -1.3647    0.1114 C   0  0  0  0  0  0  0  0  0  0  0  0
   -3.0636    0.3600    0.0879 C   0  0  0  0  0  0  0  0  0  0  0  0
   -2.9159   -1.0247    0.0074 C   0  0  0  0  0  0  0  0  0  0  0  0
   -1.6414   -1.5917    0.0150 C   0  0  0  0  0  0  0  0  0  0  0  0
    5.0536    0.1236    0.8603 C   0  0  0  0  0  0  0  0  0  0  0  0
    4.2474    1.1650   -1.1653 C   0  0  0  0  0  0  0  0  0  0  0  0
   -0.6626    0.6109    0.1835 C   0  0  0  0  0  0  0  0  0  0  0  0
   -1.9370    1.1778    0.1757 C   0  0  0  0  0  0  0  0  0  0  0  0
   -4.3655    0.9731    0.0825 C   0  0  0  0  0  0  0  0  0  0  0  0
    5.9474    1.1782    1.0468 C   0  0  0  0  0  0  0  0  0  0  0  0
    5.1415    2.2193   -0.9790 C   0  0  0  0  0  0  0  0  0  0  0  0
    5.9913    2.2261    0.1271 C   0  0  0  0  0  0  0  0  0  0  0  0
   -5.0259    1.3722   -1.0540 C   0  0  0  0  0  0  0  0  0  0  0  0
   -5.2417    1.3043    1.1333 C   0  0  0  0  0  0  0  0  0  0  0  0
   -4.0672   -1.9163   -0.0858 C   0  0  0  0  0  0  0  0  0  0  0  0
    3.3746   -1.7578    0.3555 H   0  0  0  0  0  0  0  0  0  0  0  0
    1.6552    0.3310   -0.7800 H   0  0  0  0  0  0  0  0  0  0  0  0
    3.2750   -1.1473   -2.6348 H   0  0  0  0  0  0  0  0  0  0  0  0
    4.5182   -2.1182   -1.8278 H   0  0  0  0  0  0  0  0  0  0  0  0
    2.8288   -2.6517   -1.8346 H   0  0  0  0  0  0  0  0  0  0  0  0
   -1.5185   -2.6703   -0.0525 H   0  0  0  0  0  0  0  0  0  0  0  0
    3.5912    1.1805   -2.0313 H   0  0  0  0  0  0  0  0  0  0  0  0
    0.1856    1.2817    0.2850 H   0  0  0  0  0  0  0  0  0  0  0  0
   -2.0334    2.2589    0.2463 H   0  0  0  0  0  0  0  0  0  0  0  0
    6.6088    1.1832    1.9081 H   0  0  0  0  0  0  0  0  0  0  0  0
    5.1752    3.0357   -1.6945 H   0  0  0  0  0  0  0  0  0  0  0  0
    6.6870    3.0473    0.2723 H   0  0  0  0  0  0  0  0  0  0  0  0
   -4.7701    1.3328   -2.1038 H   0  0  0  0  0  0  0  0  0  0  0  0
   -5.1066    1.1580    2.1958 H   0  0  0  0  0  0  0  0  0  0  0  0
   -5.0737   -1.4711   -0.0900 H   0  0  0  0  0  0  0  0  0  0  0  0
   -6.9537    2.2909   -1.1959 H   0  0  0  0  0  0  0  0  0  0  0  0
  1 15  1  0  0  0  0
  2 11  2  0  0  0  0
  3 25  2  0  0  0  0
  4  7  1  0  0  0  0
  4 11  1  0  0  0  0
  4 27  1  0  0  0  0
  5  6  1  0  0  0  0
  5 23  1  0  0  0  0
  5 41  1  0  0  0  0
  6 24  2  0  0  0  0
  7  8  1  0  0  0  0
  7  9  1  0  0  0  0
  7 26  1  0  0  0  0
  8 15  1  0  0  0  0
  8 16  2  0  0  0  0
  9 28  1  0  0  0  0
  9 29  1  0  0  0  0
  9 30  1  0  0  0  0
 10 11  1  0  0  0  0
 10 14  2  0  0  0  0
 10 17  1  0  0  0  0
 12 13  2  0  0  0  0
 12 18  1  0  0  0  0
 12 19  1  0  0  0  0
 13 14  1  0  0  0  0
 13 25  1  0  0  0  0
 14 31  1  0  0  0  0
 15 20  2  0  0  0  0
 16 21  1  0  0  0  0
 16 32  1  0  0  0  0
 17 18  2  0  0  0  0
 17 33  1  0  0  0  0
 18 34  1  0  0  0  0
 19 23  2  0  0  0  0
 19 24  1  0  0  0  0
 20 22  1  0  0  0  0
 20 35  1  0  0  0  0
 21 22  2  0  0  0  0
 21 36  1  0  0  0  0
 22 37  1  0  0  0  0
 23 38  1  0  0  0  0
 24 39  1  0  0  0  0
 25 40  1  0  0  0  0
M  END
> <PUBCHEM_COMPOUND_CID>
118662957

> <PUBCHEM_CONFORMER_RMSD>
0.8

> <PUBCHEM_CONFORMER_DIVERSEORDER>
2
41
83
29
9
68
14
52
61
65
53
21
66
82
64
22
80
40
31
47
70
18
84
19
30
44
32
74
20
45
7
8
51
12
57
79
15
71
35
72
55
60
16
67
59
46
37
78
49
24
73
10
69
76
25
43
13
28
39
63
42
33
77
6
36
50
54
11
58
3
17
81
62
27
48
23
34
5
56
75
4
26
1
38

> <PUBCHEM_MMFF94_PARTIAL_CHARGES>
36
1 -0.19
10 0.09
11 0.54
12 0.05
13 0.09
14 -0.15
15 0.19
16 -0.15
17 -0.15
18 -0.15
19 -0.05
2 -0.57
20 -0.15
21 -0.15
22 -0.15
23 -0.3
24 0.14
25 0.42
27 0.37
3 -0.57
31 0.15
32 0.15
33 0.15
34 0.15
35 0.15
36 0.15
37 0.15
38 0.15
39 0.15
4 -0.73
40 0.06
41 0.27
5 0.3
6 -0.71
7 0.44
8 -0.14

> <PUBCHEM_EFFECTIVE_ROTOR_COUNT>
6

> <PUBCHEM_PHARMACOPHORE_FEATURES>
8
1 2 acceptor
1 3 acceptor
1 4 donor
1 5 donor
1 6 acceptor
5 5 6 19 23 24 rings
6 10 12 13 14 17 18 rings
6 8 15 16 20 21 22 rings

> <PUBCHEM_HEAVY_ATOM_COUNT>
25

> <PUBCHEM_ATOM_DEF_STEREO_COUNT>
0

> <PUBCHEM_ATOM_UDEF_STEREO_COUNT>
1

> <PUBCHEM_BOND_DEF_STEREO_COUNT>
0

> <PUBCHEM_BOND_UDEF_STEREO_COUNT>
0

> <PUBCHEM_ISOTOPIC_ATOM_COUNT>
0

> <PUBCHEM_COMPONENT_COUNT>
1

> <PUBCHEM_CACTVS_TAUTO_COUNT>
13

> <PUBCHEM_CONFORMER_ID>
0712A72D00000002

> <PUBCHEM_MMFF94_ENERGY>
62.8254

> <PUBCHEM_FEATURE_SELFOVERLAP>
40.597

> <PUBCHEM_SHAPE_FINGERPRINT>
10 15 18113908164898607857
10014705 185 18408888434300876231
10319688 45 17909267232657943687
10319926 262 15285638746813410749
12107183 9 18188759536631738890
12166972 35 10881409720302031055
12422481 6 17095240285343506925
12539765 74 17559403457838905957
12616971 3 17240486922239211566
13073987 5 18187644760173260330
13785724 45 17974841780111101098
13955234 65 18117280246348862370
14528608 73 16845851282687567724
15183329 4 18343022194302632329
15196674 1 18410577309830801670
15348495 7 16733274524639581368
1577012 14 18260545663124809252
15840311 113 18125454020965677333
17349148 13 11458430119691718363
17980427 23 18187366579362236407
19377110 9 18040719207555178331
19427546 20 18339078306892897895
20281389 69 18186519878389801509
20511986 3 18261659437436713431
20691028 202 18127136277882428393
20715895 44 18335417941856708884
21150785 3 16988835090979471461
21236236 1 18410572929270290135
21859007 373 17533204267963108916
23559900 14 18199756860322520990
2748736 6 18411976932256655321
3472631 163 18411419522768295940
34797466 226 17489035962462594060
34934 24 18410008806648339771
3680242 22 18260548892428513336
4340502 62 17167870720818417091
465052 167 10737284637164753072
5104073 3 18187085061335898714
54039377 194 8862677815523304896
543368 44 18201720644092874705
67856867 119 18336260163753707986
6898599 12 18201438137996686615
86090 222 14274295818666777216
9981440 41 18259988209864968538

> <PUBCHEM_SHAPE_MULTIPOLES>
480.53
17.14
2.76
1.15
1.07
0.81
0.06
-11.4
-1.16
-1.23
0.27
1.13
-0.05
-0.08

> <PUBCHEM_SHAPE_SELFOVERLAP>
1051.023

> <PUBCHEM_SHAPE_VOLUME>
261.2

> <PUBCHEM_COORDINATE_TYPE>
2
5
10

$$$$
118662944
  -OEChem-05102415133D

 51 53  0     1  0  0  0  0  0999 V2000
    2.7358   -3.1508   -1.5086 O   0  0  0  0  0  0  0  0  0  0  0  0
    3.3154   -4.7016    0.7456 O   0  0  0  0  0  0  0  0  0  0  0  0
    1.3721    0.2923   -2.1952 O   0  0  0  0  0  0  0  0  0  0  0  0
   -3.2080   -1.6950    0.9685 O   0  0  0  0  0  0  0  0  0  0  0  0
    1.6211   -0.8525   -0.1944 N   0  0  0  0  0  0  0  0  0  0  0  0
   -6.5620    1.3673    0.5424 N   0  0  0  0  0  0  0  0  0  0  0  0
   -6.9423    0.1939    0.0088 N   0  0  0  0  0  0  0  0  0  0  0  0
    3.0483   -1.0714   -0.3044 C   0  0  2  0  0  0  0  0  0  0  0  0
    3.3754   -2.5757   -0.3678 C   0  0  1  0  0  0  0  0  0  0  0  0
    3.7893   -0.3865    0.8603 C   0  0  0  0  0  0  0  0  0  0  0  0
    3.9003    1.1105    0.6878 C   0  0  0  0  0  0  0  0  0  0  0  0
    2.9390   -3.3349    0.8841 C   0  0  0  0  0  0  0  0  0  0  0  0
    0.8987   -0.1796   -1.1647 C   0  0  0  0  0  0  0  0  0  0  0  0
   -0.5520   -0.0147   -0.8907 C   0  0  0  0  0  0  0  0  0  0  0  0
    2.9028    1.9462    1.1902 C   0  0  0  0  0  0  0  0  0  0  0  0
    5.0003    1.6566    0.0264 C   0  0  0  0  0  0  0  0  0  0  0  0
   -1.2187   -0.9356   -0.0826 C   0  0  0  0  0  0  0  0  0  0  0  0
   -1.2473    1.0625   -1.4406 C   0  0  0  0  0  0  0  0  0  0  0  0
   -3.2758    0.2977   -0.3739 C   0  0  0  0  0  0  0  0  0  0  0  0
   -2.5805   -0.7794    0.1760 C   0  0  0  0  0  0  0  0  0  0  0  0
    3.0054    3.3283    1.0310 C   0  0  0  0  0  0  0  0  0  0  0  0
    5.1027    3.0386   -0.1328 C   0  0  0  0  0  0  0  0  0  0  0  0
   -2.6092    1.2185   -1.1824 C   0  0  0  0  0  0  0  0  0  0  0  0
    4.1052    3.8744    0.3693 C   0  0  0  0  0  0  0  0  0  0  0  0
   -4.6796    0.4786   -0.1188 C   0  0  0  0  0  0  0  0  0  0  0  0
   -5.2167    1.5860    0.4909 C   0  0  0  0  0  0  0  0  0  0  0  0
   -5.7880   -0.3445   -0.3934 C   0  0  0  0  0  0  0  0  0  0  0  0
   -3.2318   -1.4292    2.3689 C   0  0  0  0  0  0  0  0  0  0  0  0
    3.3878   -0.6346   -1.2525 H   0  0  0  0  0  0  0  0  0  0  0  0
    4.4533   -2.7112   -0.5189 H   0  0  0  0  0  0  0  0  0  0  0  0
    3.2991   -0.5990    1.8195 H   0  0  0  0  0  0  0  0  0  0  0  0
    4.8057   -0.7929    0.9481 H   0  0  0  0  0  0  0  0  0  0  0  0
    1.1764   -1.1492    0.6674 H   0  0  0  0  0  0  0  0  0  0  0  0
    3.4153   -2.9440    1.7870 H   0  0  0  0  0  0  0  0  0  0  0  0
    1.8516   -3.3142    1.0053 H   0  0  0  0  0  0  0  0  0  0  0  0
    2.9554   -4.0981   -1.5189 H   0  0  0  0  0  0  0  0  0  0  0  0
    2.0410    1.5338    1.7081 H   0  0  0  0  0  0  0  0  0  0  0  0
    5.7826    1.0158   -0.3716 H   0  0  0  0  0  0  0  0  0  0  0  0
   -0.7163   -1.8039    0.3347 H   0  0  0  0  0  0  0  0  0  0  0  0
   -0.7446    1.7928   -2.0692 H   0  0  0  0  0  0  0  0  0  0  0  0
    2.2287    3.9790    1.4219 H   0  0  0  0  0  0  0  0  0  0  0  0
    5.9588    3.4639   -0.6485 H   0  0  0  0  0  0  0  0  0  0  0  0
    3.0237   -5.1606    1.5517 H   0  0  0  0  0  0  0  0  0  0  0  0
   -3.1322    2.0638   -1.6238 H   0  0  0  0  0  0  0  0  0  0  0  0
    4.1848    4.9504    0.2450 H   0  0  0  0  0  0  0  0  0  0  0  0
   -4.7791    2.4917    0.8878 H   0  0  0  0  0  0  0  0  0  0  0  0
   -5.8072   -1.3146   -0.8700 H   0  0  0  0  0  0  0  0  0  0  0  0
   -7.2760    1.9736    0.9264 H   0  0  0  0  0  0  0  0  0  0  0  0
   -3.8074   -2.2203    2.8573 H   0  0  0  0  0  0  0  0  0  0  0  0
   -2.2152   -1.4362    2.7748 H   0  0  0  0  0  0  0  0  0  0  0  0
   -3.7114   -0.4685    2.5798 H   0  0  0  0  0  0  0  0  0  0  0  0
  1  9  1  0  0  0  0
  1 36  1  0  0  0  0
  2 12  1  0  0  0  0
  2 43  1  0  0  0  0
  3 13  2  0  0  0  0
  4 20  1  0  0  0  0
  4 28  1  0  0  0  0
  5  8  1  0  0  0  0
  5 13  1  0  0  0  0
  5 33  1  0  0  0  0
  6  7  1  0  0  0  0
  6 26  1  0  0  0  0
  6 48  1  0  0  0  0
  7 27  2  0  0  0  0
  8  9  1  0  0  0  0
  8 10  1  0  0  0  0
  8 29  1  0  0  0  0
  9 12  1  0  0  0  0
  9 30  1  0  0  0  0
 10 11  1  0  0  0  0
 10 31  1  0  0  0  0
 10 32  1  0  0  0  0
 11 15  2  0  0  0  0
 11 16  1  0  0  0  0
 12 34  1  0  0  0  0
 12 35  1  0  0  0  0
 13 14  1  0  0  0  0
 14 17  2  0  0  0  0
 14 18  1  0  0  0  0
 15 21  1  0  0  0  0
 15 37  1  0  0  0  0
 16 22  2  0  0  0  0
 16 38  1  0  0  0  0
 17 20  1  0  0  0  0
 17 39  1  0  0  0  0
 18 23  2  0  0  0  0
 18 40  1  0  0  0  0
 19 20  2  0  0  0  0
 19 23  1  0  0  0  0
 19 25  1  0  0  0  0
 21 24  2  0  0  0  0
 21 41  1  0  0  0  0
 22 24  1  0  0  0  0
 22 42  1  0  0  0  0
 23 44  1  0  0  0  0
 24 45  1  0  0  0  0
 25 26  2  0  0  0  0
 25 27  1  0  0  0  0
 26 46  1  0  0  0  0
 27 47  1  0  0  0  0
 28 49  1  0  0  0  0
 28 50  1  0  0  0  0
 28 51  1  0  0  0  0
M  END
> <PUBCHEM_COMPOUND_CID>
118662944

> <PUBCHEM_CONFORMER_RMSD>
1

> <PUBCHEM_CONFORMER_DIVERSEORDER>
1
39
7
8
21
17
15
28
18
22
35
34
27
29
37
19
6
23
38
31
13
4
40
20
36
16
5
25
14
24
26
32
33
3
9
11
2
10
12
30

> <PUBCHEM_MMFF94_PARTIAL_CHARGES>
42
1 -0.68
10 0.14
11 -0.14
12 0.28
13 0.54
14 0.09
15 -0.15
16 -0.15
17 -0.15
18 -0.15
19 0.05
2 -0.68
20 0.08
21 -0.15
22 -0.15
23 -0.15
24 -0.15
25 -0.05
26 -0.3
27 0.14
28 0.28
3 -0.57
33 0.37
36 0.4
37 0.15
38 0.15
39 0.15
4 -0.36
40 0.15
41 0.15
42 0.15
43 0.4
44 0.15
45 0.15
46 0.15
47 0.15
48 0.27
5 -0.73
6 0.3
7 -0.71
8 0.3
9 0.28

> <PUBCHEM_EFFECTIVE_ROTOR_COUNT>
9

> <PUBCHEM_PHARMACOPHORE_FEATURES>
12
1 1 acceptor
1 1 donor
1 2 acceptor
1 2 donor
1 3 acceptor
1 4 acceptor
1 5 donor
1 6 donor
1 7 acceptor
5 6 7 25 26 27 rings
6 11 15 16 21 22 24 rings
6 14 17 18 19 20 23 rings

> <PUBCHEM_HEAVY_ATOM_COUNT>
28

> <PUBCHEM_ATOM_DEF_STEREO_COUNT>
2

> <PUBCHEM_ATOM_UDEF_STEREO_COUNT>
0

> <PUBCHEM_BOND_DEF_STEREO_COUNT>
0

> <PUBCHEM_BOND_UDEF_STEREO_COUNT>
0

> <PUBCHEM_ISOTOPIC_ATOM_COUNT>
0

> <PUBCHEM_COMPONENT_COUNT>
1

> <PUBCHEM_CACTVS_TAUTO_COUNT>
18

> <PUBCHEM_CONFORMER_ID>
0712A72000000001

> <PUBCHEM_MMFF94_ENERGY>
78.8857

> <PUBCHEM_FEATURE_SELFOVERLAP>
60.909

> <PUBCHEM_SHAPE_FINGERPRINT>
10165383 225 18261114115095030140
10816530 23 18337388365203664346
11578080 2 18339371858947905689
12107183 9 17910677558040799465
12633257 1 18189032313982923552
13533116 47 18336548214161350603
13583140 156 18270686475467362515
13785724 45 17840875066483032702
13878862 14 18196629866216737141
13955234 65 18409161083236130626
15142526 21 18125431166995926008
151778 21 18340760542218448704
15183329 4 11819267829159039581
17844677 252 18271529680821987045
20465049 17 18272096019900211836
21033648 29 18124307470608136736
21049683 271 18189341174320096438
21130935 74 18335146359102265331
21133410 32 16304069054780611130
21344244 78 17986093146510147042
21641784 216 15051744062532882025
21859007 373 17169250586880006285
22122407 14 18059866085919643905
23559900 14 17968391090459088254
23845131 108 18264762349972586106
24893989 43 15250831464822657506
255183 451 17843972442647305430
3178227 256 18408879630219169928
3411729 13 18342175579138898892
394071 54 18260550039116540533
4058900 60 18337965600893415024
4073 2 18335986466999310507
5104073 3 18339372885898711609
6442390 28 18191585474893678150
8272917 22 18343018900410102804
8988823 20 18412540985953030615

> <PUBCHEM_SHAPE_MULTIPOLES>
537.81
14.33
4.34
1.48
17.44
2.39
0.04
-7.22
2.79
-9.13
1.1
0.24
0.33
1.1

> <PUBCHEM_SHAPE_SELFOVERLAP>
1152.206

> <PUBCHEM_SHAPE_VOLUME>
298.7

> <PUBCHEM_COORDINATE_TYPE>
2
5
10

$$$$
90354029
  -OEChem-05102415133D

 39 41  0     0  0  0  0  0  0999 V2000
    2.2340    1.8719   -0.5695 O   0  0  0  0  0  0  0  0  0  0  0  0
   -1.7406   -2.3731    0.4451 O   0  0  0  0  0  0  0  0  0  0  0  0
   -2.0442   -0.7276   -1.1603 N   0  0  0  0  0  0  0  0  0  0  0  0
    6.3665    0.0121   -0.0428 N   0  0  0  0  0  0  0  0  0  0  0  0
    6.1702    0.9634    0.8859 N   0  0  0  0  0  0  0  0  0  0  0  0
   -4.9881    2.0444    0.3181 N   0  0  0  0  0  0  0  0  0  0  0  0
    2.8139   -0.3575    0.1169 C   0  0  0  0  0  0  0  0  0  0  0  0
    0.1301   -1.0796   -0.1258 C   0  0  0  0  0  0  0  0  0  0  0  0
    1.8710    0.5881   -0.2865 C   0  0  0  0  0  0  0  0  0  0  0  0
    4.2021   -0.0061    0.2501 C   0  0  0  0  0  0  0  0  0  0  0  0
    0.5291    0.2269   -0.4078 C   0  0  0  0  0  0  0  0  0  0  0  0
    2.4149   -1.6641    0.3986 C   0  0  0  0  0  0  0  0  0  0  0  0
    1.0731   -2.0251    0.2776 C   0  0  0  0  0  0  0  0  0  0  0  0
   -3.4528   -0.9655   -1.3800 C   0  0  0  0  0  0  0  0  0  0  0  0
   -1.2691   -1.4559   -0.2504 C   0  0  0  0  0  0  0  0  0  0  0  0
   -4.3114   -0.1402   -0.4657 C   0  0  0  0  0  0  0  0  0  0  0  0
    5.2195   -0.5990   -0.4570 C   0  0  0  0  0  0  0  0  0  0  0  0
    4.8461    0.9478    1.0608 C   0  0  0  0  0  0  0  0  0  0  0  0
   -5.1979   -0.7411    0.4210 C   0  0  0  0  0  0  0  0  0  0  0  0
   -4.2449    1.2438   -0.4782 C   0  0  0  0  0  0  0  0  0  0  0  0
   -5.9797    0.0491    1.2564 C   0  0  0  0  0  0  0  0  0  0  0  0
    1.1967    2.7627   -0.9736 C   0  0  0  0  0  0  0  0  0  0  0  0
   -5.8385    1.4245    1.1670 C   0  0  0  0  0  0  0  0  0  0  0  0
   -0.2346    0.9462   -0.6743 H   0  0  0  0  0  0  0  0  0  0  0  0
    3.1326   -2.4163    0.7183 H   0  0  0  0  0  0  0  0  0  0  0  0
    0.7826   -3.0489    0.4988 H   0  0  0  0  0  0  0  0  0  0  0  0
   -3.6550   -2.0348   -1.2515 H   0  0  0  0  0  0  0  0  0  0  0  0
   -3.6765   -0.7110   -2.4220 H   0  0  0  0  0  0  0  0  0  0  0  0
   -1.6129   -0.0236   -1.7495 H   0  0  0  0  0  0  0  0  0  0  0  0
    5.2379   -1.3818   -1.2027 H   0  0  0  0  0  0  0  0  0  0  0  0
    4.4096    1.6335    1.7735 H   0  0  0  0  0  0  0  0  0  0  0  0
   -5.2886   -1.8226    0.4720 H   0  0  0  0  0  0  0  0  0  0  0  0
    7.3136   -0.1696   -0.3509 H   0  0  0  0  0  0  0  0  0  0  0  0
   -3.5750    1.7721   -1.1498 H   0  0  0  0  0  0  0  0  0  0  0  0
   -6.6773   -0.3975    1.9556 H   0  0  0  0  0  0  0  0  0  0  0  0
    0.7312    2.4463   -1.9135 H   0  0  0  0  0  0  0  0  0  0  0  0
    0.4662    2.9243   -0.1733 H   0  0  0  0  0  0  0  0  0  0  0  0
    1.6667    3.7326   -1.1683 H   0  0  0  0  0  0  0  0  0  0  0  0
   -6.4252    2.0851    1.7969 H   0  0  0  0  0  0  0  0  0  0  0  0
  1  9  1  0  0  0  0
  1 22  1  0  0  0  0
  2 15  2  0  0  0  0
  3 14  1  0  0  0  0
  3 15  1  0  0  0  0
  3 29  1  0  0  0  0
  4  5  1  0  0  0  0
  4 17  1  0  0  0  0
  4 33  1  0  0  0  0
  5 18  2  0  0  0  0
  6 20  1  0  0  0  0
  6 23  2  0  0  0  0
  7  9  2  0  0  0  0
  7 10  1  0  0  0  0
  7 12  1  0  0  0  0
  8 11  2  0  0  0  0
  8 13  1  0  0  0  0
  8 15  1  0  0  0  0
  9 11  1  0  0  0  0
 10 17  2  0  0  0  0
 10 18  1  0  0  0  0
 11 24  1  0  0  0  0
 12 13  2  0  0  0  0
 12 25  1  0  0  0  0
 13 26  1  0  0  0  0
 14 16  1  0  0  0  0
 14 27  1  0  0  0  0
 14 28  1  0  0  0  0
 16 19  1  0  0  0  0
 16 20  2  0  0  0  0
 17 30  1  0  0  0  0
 18 31  1  0  0  0  0
 19 21  2  0  0  0  0
 19 32  1  0  0  0  0
 20 34  1  0  0  0  0
 21 23  1  0  0  0  0
 21 35  1  0  0  0  0
 22 36  1  0  0  0  0
 22 37  1  0  0  0  0
 22 38  1  0  0  0  0
 23 39  1  0  0  0  0
M  END
> <PUBCHEM_COMPOUND_CID>
90354029

> <PUBCHEM_CONFORMER_RMSD>
0.8

> <PUBCHEM_CONFORMER_DIVERSEORDER>
11
4
36
16
12
15
30
8
24
37
23
20
33
3
10
13
25
22
18
19
31
9
5
1
14
21
28
7
35
17
26
27
32
34
6
2
29

> <PUBCHEM_MMFF94_PARTIAL_CHARGES>
34
1 -0.36
10 -0.05
11 -0.15
12 -0.15
13 -0.15
14 0.44
15 0.54
16 -0.14
17 -0.3
18 0.14
19 -0.15
2 -0.57
20 0.16
21 -0.15
22 0.28
23 0.16
24 0.15
25 0.15
26 0.15
29 0.37
3 -0.73
30 0.15
31 0.15
32 0.15
33 0.27
34 0.15
35 0.15
39 0.15
4 0.3
5 -0.71
6 -0.62
7 0.05
8 0.09
9 0.08

> <PUBCHEM_EFFECTIVE_ROTOR_COUNT>
6

> <PUBCHEM_PHARMACOPHORE_FEATURES>
9
1 1 acceptor
1 2 acceptor
1 3 donor
1 4 donor
1 5 acceptor
1 6 acceptor
5 4 5 10 17 18 rings
6 6 16 19 20 21 23 rings
6 7 8 9 11 12 13 rings

> <PUBCHEM_HEAVY_ATOM_COUNT>
23

> <PUBCHEM_ATOM_DEF_STEREO_COUNT>
0

> <PUBCHEM_ATOM_UDEF_STEREO_COUNT>
0

> <PUBCHEM_BOND_DEF_STEREO_COUNT>
0

> <PUBCHEM_BOND_UDEF_STEREO_COUNT>
0

> <PUBCHEM_ISOTOPIC_ATOM_COUNT>
0

> <PUBCHEM_COMPONENT_COUNT>
1

> <PUBCHEM_CACTVS_TAUTO_COUNT>
7

> <PUBCHEM_CONFORMER_ID>
0562B16D0000000B

> <PUBCHEM_MMFF94_ENERGY>
66.4777

> <PUBCHEM_FEATURE_SELFOVERLAP>
45.673

> <PUBCHEM_SHAPE_FINGERPRINT>
10 15 18040152946197522904
10354089 29 18334860510756615939
10906281 52 18262809574709086420
11089746 13 17846771927683364144
11646440 116 18412832395041533976
11724838 91 18341896308008055103
11796584 16 16057162817861394518
12035758 1 18041272257814450448
12236239 1 18131913758229338527
12507557 5 18261109669492453613
12633257 1 18040990786684301287
13140716 1 18116433837132406140
13177829 73 18342739615286581185
13668630 136 10809347745945866513
13782708 43 13479121381470446976
14020679 6 17603870052268647386
14341114 176 18336553712014752283
14466204 15 18333728018074935192
14790565 3 18334296504695265140
14849402 71 18190748720201131060
15081414 286 18408885101400993172
15183329 4 16559034865482928694
15188451 53 16371017347359109563
15238133 3 18261122858587940164
15475509 8 18340502088477350828
1601671 61 18409163307928729254
18785283 64 17749961088330494500
20281389 69 18201998824269987051
20621476 66 18273218594853533505
20739085 24 18189903010832495750
21033648 29 17916853742592629634
21304253 13 18340763836754290040
21304253 335 18341611546906570660
21623969 137 14779259796296532256
21756936 100 18343579655704197367
22393880 68 10303805450647320341
23402539 116 12895072929029614943
23536379 177 17346598586344763478
23569943 247 18195806267662715882
24771293 8 18269825588608612528
3680242 22 18114454592286648506
38695281 34 17989204841346979918
392239 28 18115606945255874187
4340502 62 15864065469294749530
5104073 3 17970340628208036904
5385378 56 18335702694057315282
5718773 13 12613339593790127113
6328613 192 18337394945726745836
7226269 152 17988925561245854025
7495541 125 15430038777130796222

> <PUBCHEM_SHAPE_MULTIPOLES>
441.67
15.63
2.24
1.08
1.75
0.54
-0.01
4.9
-4.88
0.48
0.15
0.74
0.16
-0.47

> <PUBCHEM_SHAPE_SELFOVERLAP>
962.806

> <PUBCHEM_SHAPE_VOLUME>
240

> <PUBCHEM_COORDINATE_TYPE>
2
5
10

$$$$
85470504
  -OEChem-05102415133D

 46 48  0     0  0  0  0  0  0999 V2000
   -4.6827    1.5930   -0.7448 O   0  0  0  0  0  0  0  0  0  0  0  0
    0.2379    2.7547   -0.4132 O   0  0  0  0  0  0  0  0  0  0  0  0
    6.4292   -2.0110   -0.7120 O   0  0  0  0  0  0  0  0  0  0  0  0
    5.1486   -2.4241    1.1557 O   0  0  0  0  0  0  0  0  0  0  0  0
    0.9910    1.2730    1.2036 N   0  0  0  0  0  0  0  0  0  0  0  0
   -6.5310   -2.4066    0.4392 N   0  0  0  0  0  0  0  0  0  0  0  0
   -6.7139   -2.1879   -0.8741 N   0  0  0  0  0  0  0  0  0  0  0  0
   -3.5924   -0.4215   -0.0159 C   0  0  0  0  0  0  0  0  0  0  0  0
   -1.2003    1.0008    0.1811 C   0  0  0  0  0  0  0  0  0  0  0  0
    2.2661    1.9125    1.4364 C   0  0  0  0  0  0  0  0  0  0  0  0
    3.3385    1.3721    0.5353 C   0  0  0  0  0  0  0  0  0  0  0  0
   -3.5598    0.9361   -0.3351 C   0  0  0  0  0  0  0  0  0  0  0  0
   -2.3637    1.6472   -0.2365 C   0  0  0  0  0  0  0  0  0  0  0  0
   -4.8143   -1.1738   -0.1122 C   0  0  0  0  0  0  0  0  0  0  0  0
   -2.4290   -1.0678    0.4020 C   0  0  0  0  0  0  0  0  0  0  0  0
   -1.2330   -0.3568    0.5002 C   0  0  0  0  0  0  0  0  0  0  0  0
    0.0471    1.7413    0.2822 C   0  0  0  0  0  0  0  0  0  0  0  0
    3.8967    0.1190    0.7882 C   0  0  0  0  0  0  0  0  0  0  0  0
    3.7759    2.1230   -0.5559 C   0  0  0  0  0  0  0  0  0  0  0  0
    4.8922   -0.3831   -0.0499 C   0  0  0  0  0  0  0  0  0  0  0  0
   -5.4075   -1.8208    0.9443 C   0  0  0  0  0  0  0  0  0  0  0  0
    4.7712    1.6207   -1.3942 C   0  0  0  0  0  0  0  0  0  0  0  0
    5.3296    0.3678   -1.1411 C   0  0  0  0  0  0  0  0  0  0  0  0
   -5.6621   -1.4342   -1.2054 C   0  0  0  0  0  0  0  0  0  0  0  0
    5.4739   -1.6898    0.2133 C   0  0  0  0  0  0  0  0  0  0  0  0
   -5.4854    2.1945    0.2683 C   0  0  0  0  0  0  0  0  0  0  0  0
    7.0772   -3.2784   -0.5594 C   0  0  0  0  0  0  0  0  0  0  0  0
    2.5373    1.7429    2.4848 H   0  0  0  0  0  0  0  0  0  0  0  0
    2.1542    2.9952    1.3069 H   0  0  0  0  0  0  0  0  0  0  0  0
   -2.3523    2.7059   -0.4849 H   0  0  0  0  0  0  0  0  0  0  0  0
   -2.4296   -2.1281    0.6444 H   0  0  0  0  0  0  0  0  0  0  0  0
   -0.3449   -0.9069    0.7970 H   0  0  0  0  0  0  0  0  0  0  0  0
    0.7779    0.4731    1.7898 H   0  0  0  0  0  0  0  0  0  0  0  0
    3.5489   -0.4592    1.6411 H   0  0  0  0  0  0  0  0  0  0  0  0
    3.3488    3.1000   -0.7660 H   0  0  0  0  0  0  0  0  0  0  0  0
   -5.1444   -1.9177    1.9886 H   0  0  0  0  0  0  0  0  0  0  0  0
    5.1109    2.2056   -2.2441 H   0  0  0  0  0  0  0  0  0  0  0  0
    6.1015    0.0176   -1.8205 H   0  0  0  0  0  0  0  0  0  0  0  0
   -5.5607   -1.1087   -2.2312 H   0  0  0  0  0  0  0  0  0  0  0  0
   -7.2150   -2.9670    0.9322 H   0  0  0  0  0  0  0  0  0  0  0  0
   -4.9285    2.9908    0.7722 H   0  0  0  0  0  0  0  0  0  0  0  0
   -5.8192    1.4518    0.9994 H   0  0  0  0  0  0  0  0  0  0  0  0
   -6.3659    2.6334   -0.2090 H   0  0  0  0  0  0  0  0  0  0  0  0
    7.8062   -3.3875   -1.3667 H   0  0  0  0  0  0  0  0  0  0  0  0
    6.3447   -4.0876   -0.6338 H   0  0  0  0  0  0  0  0  0  0  0  0
    7.6032   -3.3199    0.3989 H   0  0  0  0  0  0  0  0  0  0  0  0
  1 12  1  0  0  0  0
  1 26  1  0  0  0  0
  2 17  2  0  0  0  0
  3 25  1  0  0  0  0
  3 27  1  0  0  0  0
  4 25  2  0  0  0  0
  5 10  1  0  0  0  0
  5 17  1  0  0  0  0
  5 33  1  0  0  0  0
  6  7  1  0  0  0  0
  6 21  1  0  0  0  0
  6 40  1  0  0  0  0
  7 24  2  0  0  0  0
  8 12  2  0  0  0  0
  8 14  1  0  0  0  0
  8 15  1  0  0  0  0
  9 13  2  0  0  0  0
  9 16  1  0  0  0  0
  9 17  1  0  0  0  0
 10 11  1  0  0  0  0
 10 28  1  0  0  0  0
 10 29  1  0  0  0  0
 11 18  2  0  0  0  0
 11 19  1  0  0  0  0
 12 13  1  0  0  0  0
 13 30  1  0  0  0  0
 14 21  2  0  0  0  0
 14 24  1  0  0  0  0
 15 16  2  0  0  0  0
 15 31  1  0  0  0  0
 16 32  1  0  0  0  0
 18 20  1  0  0  0  0
 18 34  1  0  0  0  0
 19 22  2  0  0  0  0
 19 35  1  0  0  0  0
 20 23  2  0  0  0  0
 20 25  1  0  0  0  0
 21 36  1  0  0  0  0
 22 23  1  0  0  0  0
 22 37  1  0  0  0  0
 23 38  1  0  0  0  0
 24 39  1  0  0  0  0
 26 41  1  0  0  0  0
 26 42  1  0  0  0  0
 26 43  1  0  0  0  0
 27 44  1  0  0  0  0
 27 45  1  0  0  0  0
 27 46  1  0  0  0  0
M  END
> <PUBCHEM_COMPOUND_CID>
85470504

> <PUBCHEM_CONFORMER_RMSD>
1

> <PUBCHEM_CONFORMER_DIVERSEORDER>
4
23
38
62
42
63
26
36
20
67
10
52
54
55
72
41
45
35
74
65
2
73
60
21
1
12
57
49
3
40
44
30
50
33
61
39
37
9
46
47
34
58
18
29
27
32
7
48
71
6
25
16
8
43
31
66
53
69
64
68
28
14
70
19
11
22
17
59
5
15
51
24
56
13

> <PUBCHEM_MMFF94_PARTIAL_CHARGES>
38
1 -0.36
10 0.44
11 -0.14
12 0.08
13 -0.15
14 -0.05
15 -0.15
16 -0.15
17 0.54
18 -0.15
19 -0.15
2 -0.57
20 0.09
21 -0.3
22 -0.15
23 -0.15
24 0.14
25 0.63
26 0.28
27 0.28
3 -0.43
30 0.15
31 0.15
32 0.15
33 0.37
34 0.15
35 0.15
36 0.15
37 0.15
38 0.15
39 0.15
4 -0.57
40 0.27
5 -0.73
6 0.3
7 -0.71
8 0.05
9 0.09

> <PUBCHEM_EFFECTIVE_ROTOR_COUNT>
8

> <PUBCHEM_PHARMACOPHORE_FEATURES>
9
1 1 acceptor
1 2 acceptor
1 4 acceptor
1 5 donor
1 6 donor
1 7 acceptor
5 6 7 14 21 24 rings
6 11 18 19 20 22 23 rings
6 8 9 12 13 15 16 rings

> <PUBCHEM_HEAVY_ATOM_COUNT>
27

> <PUBCHEM_ATOM_DEF_STEREO_COUNT>
0

> <PUBCHEM_ATOM_UDEF_STEREO_COUNT>
0

> <PUBCHEM_BOND_DEF_STEREO_COUNT>
0

> <PUBCHEM_BOND_UDEF_STEREO_COUNT>
0

> <PUBCHEM_ISOTOPIC_ATOM_COUNT>
0

> <PUBCHEM_COMPONENT_COUNT>
1

> <PUBCHEM_CACTVS_TAUTO_COUNT>
9

> <PUBCHEM_CONFORMER_ID>
05182D2800000004

> <PUBCHEM_MMFF94_ENERGY>
81.1872

> <PUBCHEM_FEATURE_SELFOVERLAP>
45.673

> <PUBCHEM_SHAPE_FINGERPRINT>
10595046 47 18335707165160448756
117089 54 18410865347391758626
12166972 35 18113905969895831484
12616971 3 14620517869551039297
13073987 5 18201437012309514713
13533116 47 18341331205542698192
1361 4 18266742565665815919
13782708 43 18130503136920072255
13955234 65 17914891174446122880
14118638 360 18270965759805634496
14216079 64 18341610464917846055
14347332 77 18413386562256202973
14420673 8 18340488859550713217
14931854 50 17968381148406779042
15183329 4 17967529073427144996
15348495 7 11815901184025098317
15475509 35 18060133263308402154
15510800 12 17702674242195787478
15519825 34 14548153507373417767
17134984 74 18113336432191032938
17844677 252 18271527606274220849
1979834 28 16271936999751579868
19958102 18 17968087642677591223
20567600 247 18411980273724926298
20691028 202 10882770894929750463
21130935 74 18128254687539892763
21267235 1 18189898798619363883
21279426 13 18336256869191531693
21641784 216 15430303720636181301
21682296 61 18413390951712890003
22950370 63 18408325492589892513
23522609 53 18054542267819271113
23559900 14 18410851066873172448
23569914 152 17835485299612803591
23569943 247 18342740702526120731
270888 7 8214134154174490962
2748736 6 8070033246179338943
3004659 81 18334013853234508122
34797466 226 16805885216197038437
397830 11 10807934916285100757
439807 62 18409732867536366031
46194498 28 17459466822353951836
465052 167 18202567293631086076
5104073 3 17632578257641170224
531348 171 18272929436913553487
54039377 194 18271250435445311822
5718773 13 18341890796784636974
86090 222 16486154867397518966
960060 61 18187648028980845932

> <PUBCHEM_SHAPE_MULTIPOLES>
517.23
19.97
3.41
1.14
1.47
1.12
0
16.63
3.97
1.68
0.13
0.54
-0.07
-0.15

> <PUBCHEM_SHAPE_SELFOVERLAP>
1122.138

> <PUBCHEM_SHAPE_VOLUME>
283.9

> <PUBCHEM_COORDINATE_TYPE>
2
5
10

$$$$
90354094
  -OEChem-05102415133D

 40 42  0     0  0  0  0  0  0999 V2000
    2.9419    1.9808    0.7029 F   0  0  0  0  0  0  0  0  0  0  0  0
   -5.9399   -0.4570   -1.7435 O   0  0  0  0  0  0  0  0  0  0  0  0
   -1.1062   -2.2153   -0.1678 O   0  0  0  0  0  0  0  0  0  0  0  0
   -1.2864   -0.6259    1.5109 N   0  0  0  0  0  0  0  0  0  0  0  0
    6.9958    0.0550   -0.5451 N   0  0  0  0  0  0  0  0  0  0  0  0
    6.7398    1.3528   -0.7822 N   0  0  0  0  0  0  0  0  0  0  0  0
   -2.6598   -0.9077    1.8621 C   0  0  0  0  0  0  0  0  0  0  0  0
   -3.6252   -0.0796    1.0643 C   0  0  0  0  0  0  0  0  0  0  0  0
    0.7964   -0.9230    0.2882 C   0  0  0  0  0  0  0  0  0  0  0  0
    3.4546   -0.1869   -0.1308 C   0  0  0  0  0  0  0  0  0  0  0  0
   -0.5893   -1.3065    0.5058 C   0  0  0  0  0  0  0  0  0  0  0  0
    4.8245    0.1864   -0.3481 C   0  0  0  0  0  0  0  0  0  0  0  0
    1.2207    0.3680    0.6031 C   0  0  0  0  0  0  0  0  0  0  0  0
    1.7014   -1.8460   -0.2364 C   0  0  0  0  0  0  0  0  0  0  0  0
    2.5497    0.7362    0.3937 C   0  0  0  0  0  0  0  0  0  0  0  0
    3.0304   -1.4778   -0.4462 C   0  0  0  0  0  0  0  0  0  0  0  0
   -4.3435   -0.6598    0.0188 C   0  0  0  0  0  0  0  0  0  0  0  0
   -3.8031    1.2703    1.3680 C   0  0  0  0  0  0  0  0  0  0  0  0
   -5.2400    0.1095   -0.7229 C   0  0  0  0  0  0  0  0  0  0  0  0
   -4.6994    2.0397    0.6261 C   0  0  0  0  0  0  0  0  0  0  0  0
    5.8825   -0.6870   -0.2798 C   0  0  0  0  0  0  0  0  0  0  0  0
   -5.4180    1.4593   -0.4191 C   0  0  0  0  0  0  0  0  0  0  0  0
    5.4118    1.4270   -0.6605 C   0  0  0  0  0  0  0  0  0  0  0  0
   -6.8386    0.3874   -2.4614 C   0  0  0  0  0  0  0  0  0  0  0  0
   -2.7802   -0.6968    2.9309 H   0  0  0  0  0  0  0  0  0  0  0  0
   -2.8539   -1.9777    1.7241 H   0  0  0  0  0  0  0  0  0  0  0  0
   -0.8152    0.0737    2.0741 H   0  0  0  0  0  0  0  0  0  0  0  0
    3.7048   -2.2187   -0.8681 H   0  0  0  0  0  0  0  0  0  0  0  0
    0.5441    1.1271    0.9842 H   0  0  0  0  0  0  0  0  0  0  0  0
    1.3911   -2.8571   -0.4870 H   0  0  0  0  0  0  0  0  0  0  0  0
   -4.2092   -1.7107   -0.2254 H   0  0  0  0  0  0  0  0  0  0  0  0
   -3.2487    1.7333    2.1800 H   0  0  0  0  0  0  0  0  0  0  0  0
   -4.8370    3.0907    0.8632 H   0  0  0  0  0  0  0  0  0  0  0  0
    5.9595   -1.7440   -0.0652 H   0  0  0  0  0  0  0  0  0  0  0  0
   -6.0971    2.1143   -0.9541 H   0  0  0  0  0  0  0  0  0  0  0  0
    4.9366    2.3860   -0.8122 H   0  0  0  0  0  0  0  0  0  0  0  0
    7.9579   -0.2582   -0.5787 H   0  0  0  0  0  0  0  0  0  0  0  0
   -7.6418    0.7604   -1.8169 H   0  0  0  0  0  0  0  0  0  0  0  0
   -6.3077    1.1969   -2.9738 H   0  0  0  0  0  0  0  0  0  0  0  0
   -7.3096   -0.2265   -3.2362 H   0  0  0  0  0  0  0  0  0  0  0  0
  1 15  1  0  0  0  0
  2 19  1  0  0  0  0
  2 24  1  0  0  0  0
  3 11  2  0  0  0  0
  4  7  1  0  0  0  0
  4 11  1  0  0  0  0
  4 27  1  0  0  0  0
  5  6  1  0  0  0  0
  5 21  1  0  0  0  0
  5 37  1  0  0  0  0
  6 23  2  0  0  0  0
  7  8  1  0  0  0  0
  7 25  1  0  0  0  0
  7 26  1  0  0  0  0
  8 17  2  0  0  0  0
  8 18  1  0  0  0  0
  9 11  1  0  0  0  0
  9 13  2  0  0  0  0
  9 14  1  0  0  0  0
 10 12  1  0  0  0  0
 10 15  2  0  0  0  0
 10 16  1  0  0  0  0
 12 21  2  0  0  0  0
 12 23  1  0  0  0  0
 13 15  1  0  0  0  0
 13 29  1  0  0  0  0
 14 16  2  0  0  0  0
 14 30  1  0  0  0  0
 16 28  1  0  0  0  0
 17 19  1  0  0  0  0
 17 31  1  0  0  0  0
 18 20  2  0  0  0  0
 18 32  1  0  0  0  0
 19 22  2  0  0  0  0
 20 22  1  0  0  0  0
 20 33  1  0  0  0  0
 21 34  1  0  0  0  0
 22 35  1  0  0  0  0
 23 36  1  0  0  0  0
 24 38  1  0  0  0  0
 24 39  1  0  0  0  0
 24 40  1  0  0  0  0
M  END
> <PUBCHEM_COMPOUND_CID>
90354094

> <PUBCHEM_CONFORMER_RMSD>
0.8

> <PUBCHEM_CONFORMER_DIVERSEORDER>
1
37
31
11
50
28
33
35
42
36
32
29
7
3
57
44
24
27
54
34
6
52
40
39
21
17
53
5
45
51
9
25
38
14
56
22
4
23
49
10
55
43
12
16
46
47
13
20
2
19
41
48
26
30
18
8
15

> <PUBCHEM_MMFF94_PARTIAL_CHARGES>
35
1 -0.19
10 0.05
11 0.54
12 -0.05
13 -0.15
14 -0.15
15 0.19
16 -0.15
17 -0.15
18 -0.15
19 0.08
2 -0.36
20 -0.15
21 -0.3
22 -0.15
23 0.14
24 0.28
27 0.37
28 0.15
29 0.15
3 -0.57
30 0.15
31 0.15
32 0.15
33 0.15
34 0.15
35 0.15
36 0.15
37 0.27
4 -0.73
5 0.3
6 -0.71
7 0.44
8 -0.14
9 0.09

> <PUBCHEM_EFFECTIVE_ROTOR_COUNT>
6

> <PUBCHEM_PHARMACOPHORE_FEATURES>
8
1 2 acceptor
1 3 acceptor
1 4 donor
1 5 donor
1 6 acceptor
5 5 6 12 21 23 rings
6 8 17 18 19 20 22 rings
6 9 10 13 14 15 16 rings

> <PUBCHEM_HEAVY_ATOM_COUNT>
24

> <PUBCHEM_ATOM_DEF_STEREO_COUNT>
0

> <PUBCHEM_ATOM_UDEF_STEREO_COUNT>
0

> <PUBCHEM_BOND_DEF_STEREO_COUNT>
0

> <PUBCHEM_BOND_UDEF_STEREO_COUNT>
0

> <PUBCHEM_ISOTOPIC_ATOM_COUNT>
0

> <PUBCHEM_COMPONENT_COUNT>
1

> <PUBCHEM_CACTVS_TAUTO_COUNT>
7

> <PUBCHEM_CONFORMER_ID>
0562B1AE00000001

> <PUBCHEM_MMFF94_ENERGY>
63.5968

> <PUBCHEM_FEATURE_SELFOVERLAP>
40.597

> <PUBCHEM_SHAPE_FINGERPRINT>
10554248 39 18334295345280870814
10693767 8 17417259711080811374
10763959 59 17822009834952174348
11036077 4 11169920477063099097
11089746 13 18343022194628848456
12166972 35 16917066689489156512
12236239 1 16988566784018847898
12422481 6 16443633518329959900
12596602 18 13840279090768777845
13103583 49 11530489917517322011
13668630 136 15410896270900951181
13673619 4 14907891709386687891
13782708 43 13182472010657172356
13941219 33 8646496223702888245
14251757 5 17060042814068957711
14251764 18 11963396245607443033
14251764 30 13686289210760733893
14528608 73 18202563973162313232
14950920 106 11675177968405004109
15003188 100 18339076094293617613
15142383 8 17458058271271428580
15183329 4 18343582932415759830
15238133 3 15285366110800462558
15461852 350 15864076498823896259
15510800 12 13038603186290462981
15716309 27 10807934859928065083
16110190 28 10881404231386431225
1813 80 12175617417370139595
18335252 98 18335711546754785955
18643901 69 16200426993107365765
18681886 176 16845564327448606162
18927931 339 13398631632885549201
20281389 69 17385446526723875232
21054139 6 16845573110546015422
21150785 3 16630527362695535120
21521721 280 11025809717124704630
21709351 56 18339647844592570542
22288116 15 17775286101193298367
22393880 68 17561074779394062393
23402539 116 15482683350650168866
23402655 69 18201725011446490587
23559900 14 18059288884921472761
23576562 1 18196657513258500500
2838139 119 18409170991166636681
335352 9 18413113853930125654
465052 167 9943530692077724576
4938544 92 15357699708374581243
6328613 192 18188218697127830340
7226269 152 16732988617319671269
7495541 125 11240000019364660066
9862886 166 13830127304199110780
999808 66 12607402213313618133

> <PUBCHEM_SHAPE_MULTIPOLES>
459.95
18.66
1.87
1.5
4.27
0.09
-0.32
7.61
-9.31
0.19
0.14
-3.24
0.06
-0.15

> <PUBCHEM_SHAPE_SELFOVERLAP>
1004.911

> <PUBCHEM_SHAPE_VOLUME>
251.1

> <PUBCHEM_COORDINATE_TYPE>
2
5
10

$$$$
85470579
  -OEChem-05102415133D

 53 55  0     0  0  0  0  0  0999 V2000
   -2.1318    1.2015   -1.8772 Cl  0  0  0  0  0  0  0  0  0  0  0  0
   -5.9252   -1.3839    0.3044 O   0  0  0  0  0  0  0  0  0  0  0  0
    5.3011    1.0328   -1.4421 O   0  0  0  0  0  0  0  0  0  0  0  0
    1.0264    3.1849    0.2212 O   0  0  0  0  0  0  0  0  0  0  0  0
   -0.2298    1.3545    0.8931 N   0  0  0  0  0  0  0  0  0  0  0  0
    6.8496   -3.0984    0.1681 N   0  0  0  0  0  0  0  0  0  0  0  0
    7.7041   -2.1113   -0.1505 N   0  0  0  0  0  0  0  0  0  0  0  0
   -8.1154   -1.6155   -0.6944 C   0  0  0  0  0  0  0  0  0  0  0  0
   -6.6397   -1.2755   -0.9198 C   0  0  0  0  0  0  0  0  0  0  0  0
   -8.8799   -1.5735   -2.0158 C   0  0  0  0  0  0  0  0  0  0  0  0
   -8.7569   -0.6677    0.3214 C   0  0  0  0  0  0  0  0  0  0  0  0
   -2.6546    1.1398    0.7964 C   0  0  0  0  0  0  0  0  0  0  0  0
   -1.4866    2.0461    1.0162 C   0  0  0  0  0  0  0  0  0  0  0  0
   -4.8474   -0.5531    0.4662 C   0  0  0  0  0  0  0  0  0  0  0  0
    4.4159   -0.4795    0.2034 C   0  0  0  0  0  0  0  0  0  0  0  0
    2.1471    1.1328    0.3957 C   0  0  0  0  0  0  0  0  0  0  0  0
   -3.0169    0.7087   -0.4798 C   0  0  0  0  0  0  0  0  0  0  0  0
   -3.3884    0.7242    1.9075 C   0  0  0  0  0  0  0  0  0  0  0  0
   -4.1133   -0.1378   -0.6449 C   0  0  0  0  0  0  0  0  0  0  0  0
   -4.4850   -0.1220    1.7424 C   0  0  0  0  0  0  0  0  0  0  0  0
    4.3105    0.6723   -0.5766 C   0  0  0  0  0  0  0  0  0  0  0  0
    0.9397    1.9919    0.4997 C   0  0  0  0  0  0  0  0  0  0  0  0
    3.1762    1.4783   -0.4805 C   0  0  0  0  0  0  0  0  0  0  0  0
    3.3868   -0.8251    1.0793 C   0  0  0  0  0  0  0  0  0  0  0  0
    2.2525   -0.0190    1.1757 C   0  0  0  0  0  0  0  0  0  0  0  0
    5.5773   -1.3236    0.1211 C   0  0  0  0  0  0  0  0  0  0  0  0
    5.5633   -2.6792    0.3417 C   0  0  0  0  0  0  0  0  0  0  0  0
    6.9213   -1.0295   -0.1776 C   0  0  0  0  0  0  0  0  0  0  0  0
    5.0991    2.2268   -2.1944 C   0  0  0  0  0  0  0  0  0  0  0  0
   -8.1801   -2.6303   -0.2818 H   0  0  0  0  0  0  0  0  0  0  0  0
   -6.2035   -1.9750   -1.6430 H   0  0  0  0  0  0  0  0  0  0  0  0
   -6.5899   -0.2587   -1.3328 H   0  0  0  0  0  0  0  0  0  0  0  0
   -8.4484   -2.2755   -2.7370 H   0  0  0  0  0  0  0  0  0  0  0  0
   -9.9288   -1.8507   -1.8671 H   0  0  0  0  0  0  0  0  0  0  0  0
   -8.8543   -0.5724   -2.4598 H   0  0  0  0  0  0  0  0  0  0  0  0
   -8.6971    0.3732   -0.0142 H   0  0  0  0  0  0  0  0  0  0  0  0
   -9.8137   -0.9151    0.4682 H   0  0  0  0  0  0  0  0  0  0  0  0
   -8.2639   -0.7385    1.2964 H   0  0  0  0  0  0  0  0  0  0  0  0
   -1.5203    2.9030    0.3331 H   0  0  0  0  0  0  0  0  0  0  0  0
   -1.5077    2.4751    2.0256 H   0  0  0  0  0  0  0  0  0  0  0  0
   -3.1192    1.0482    2.9094 H   0  0  0  0  0  0  0  0  0  0  0  0
   -4.3558   -0.4839   -1.6461 H   0  0  0  0  0  0  0  0  0  0  0  0
   -5.0534   -0.4425    2.6112 H   0  0  0  0  0  0  0  0  0  0  0  0
   -0.2310    0.3594    1.0900 H   0  0  0  0  0  0  0  0  0  0  0  0
    3.0379    2.3799   -1.0669 H   0  0  0  0  0  0  0  0  0  0  0  0
    3.4432   -1.7026    1.7186 H   0  0  0  0  0  0  0  0  0  0  0  0
    1.4930   -0.3055    1.8968 H   0  0  0  0  0  0  0  0  0  0  0  0
    4.7813   -3.3826    0.5928 H   0  0  0  0  0  0  0  0  0  0  0  0
    7.3812   -0.0779   -0.4030 H   0  0  0  0  0  0  0  0  0  0  0  0
    7.2128   -4.0399    0.2494 H   0  0  0  0  0  0  0  0  0  0  0  0
    5.9838    2.3604   -2.8260 H   0  0  0  0  0  0  0  0  0  0  0  0
    5.0390    3.1088   -1.5476 H   0  0  0  0  0  0  0  0  0  0  0  0
    4.2411    2.1403   -2.8700 H   0  0  0  0  0  0  0  0  0  0  0  0
  1 17  1  0  0  0  0
  2  9  1  0  0  0  0
  2 14  1  0  0  0  0
  3 21  1  0  0  0  0
  3 29  1  0  0  0  0
  4 22  2  0  0  0  0
  5 13  1  0  0  0  0
  5 22  1  0  0  0  0
  5 44  1  0  0  0  0
  6  7  1  0  0  0  0
  6 27  1  0  0  0  0
  6 50  1  0  0  0  0
  7 28  2  0  0  0  0
  8  9  1  0  0  0  0
  8 10  1  0  0  0  0
  8 11  1  0  0  0  0
  8 30  1  0  0  0  0
  9 31  1  0  0  0  0
  9 32  1  0  0  0  0
 10 33  1  0  0  0  0
 10 34  1  0  0  0  0
 10 35  1  0  0  0  0
 11 36  1  0  0  0  0
 11 37  1  0  0  0  0
 11 38  1  0  0  0  0
 12 13  1  0  0  0  0
 12 17  2  0  0  0  0
 12 18  1  0  0  0  0
 13 39  1  0  0  0  0
 13 40  1  0  0  0  0
 14 19  2  0  0  0  0
 14 20  1  0  0  0  0
 15 21  2  0  0  0  0
 15 24  1  0  0  0  0
 15 26  1  0  0  0  0
 16 22  1  0  0  0  0
 16 23  2  0  0  0  0
 16 25  1  0  0  0  0
 17 19  1  0  0  0  0
 18 20  2  0  0  0  0
 18 41  1  0  0  0  0
 19 42  1  0  0  0  0
 20 43  1  0  0  0  0
 21 23  1  0  0  0  0
 23 45  1  0  0  0  0
 24 25  2  0  0  0  0
 24 46  1  0  0  0  0
 25 47  1  0  0  0  0
 26 27  2  0  0  0  0
 26 28  1  0  0  0  0
 27 48  1  0  0  0  0
 28 49  1  0  0  0  0
 29 51  1  0  0  0  0
 29 52  1  0  0  0  0
 29 53  1  0  0  0  0
M  END
> <PUBCHEM_COMPOUND_CID>
85470579

> <PUBCHEM_CONFORMER_RMSD>
1

> <PUBCHEM_CONFORMER_DIVERSEORDER>
8
27
43
45
82
26
60
72
88
77
33
17
40
68
61
84
49
67
41
28
83
65
71
37
63
21
59
52
36
56
39
13
20
32
34
51
16
22
76
50
78
64
85
74
62
38
55
11
57
19
6
44
53
46
2
23
42
1
80
3
73
81
47
79
69
35
30
70
75
54
24
15
29
48
87
18
86
7
5
10
66
12
9
31
58
4
14
25

> <PUBCHEM_MMFF94_PARTIAL_CHARGES>
36
1 -0.18
12 -0.14
13 0.44
14 0.08
15 0.05
16 0.09
17 0.18
18 -0.15
19 -0.15
2 -0.36
20 -0.15
21 0.08
22 0.54
23 -0.15
24 -0.15
25 -0.15
26 -0.05
27 -0.3
28 0.14
29 0.28
3 -0.36
4 -0.57
41 0.15
42 0.15
43 0.15
44 0.37
45 0.15
46 0.15
47 0.15
48 0.15
49 0.15
5 -0.73
50 0.27
6 0.3
7 -0.71
9 0.28

> <PUBCHEM_EFFECTIVE_ROTOR_COUNT>
9

> <PUBCHEM_PHARMACOPHORE_FEATURES>
10
1 2 acceptor
1 3 acceptor
1 4 acceptor
1 5 donor
1 6 donor
1 7 acceptor
3 8 10 11 hydrophobe
5 6 7 26 27 28 rings
6 12 14 17 18 19 20 rings
6 15 16 21 23 24 25 rings

> <PUBCHEM_HEAVY_ATOM_COUNT>
29

> <PUBCHEM_ATOM_DEF_STEREO_COUNT>
0

> <PUBCHEM_ATOM_UDEF_STEREO_COUNT>
0

> <PUBCHEM_BOND_DEF_STEREO_COUNT>
0

> <PUBCHEM_BOND_UDEF_STEREO_COUNT>
0

> <PUBCHEM_ISOTOPIC_ATOM_COUNT>
0

> <PUBCHEM_COMPONENT_COUNT>
1

> <PUBCHEM_CACTVS_TAUTO_COUNT>
9

> <PUBCHEM_CONFORMER_ID>
05182D7300000008

> <PUBCHEM_MMFF94_ENERGY>
84.9708

> <PUBCHEM_FEATURE_SELFOVERLAP>
50.747

> <PUBCHEM_SHAPE_FINGERPRINT>
10 15 15410890777627145810
10319926 262 15626236701512160625
10930396 42 13973958797628611619
11273773 42 11241973690128585291
11386260 185 17313104189165571324
11607047 74 18201156676759965144
12592606 108 18272082838804037007
12895837 130 11169924878934962611
13248334 5 18053939829694203833
13673619 4 18333165064143337013
14068700 675 18060140938067177689
14294032 229 12252201666404740785
14931854 50 17749104461635625563
15064981 194 13840563847722663477
15064986 266 17822021887068184953
15188451 53 17561362894432287241
15198563 99 17241031134347905277
15475509 8 17240754087524621845
15519825 34 15051432960771517119
15685185 35 7925617926216340615
16994733 274 11747198158058171871
18393751 57 10663826278272065929
19841028 212 18271519892554830419
20028762 73 18131633382817438742
2026 5 18337106744478205010
20691028 202 8502070964558066206
21304303 64 9223229650822211179
21315759 40 18272654549520077183
21344244 78 15626227939383238649
21585481 104 17603863386880590533
21585483 132 18116424856942522810
221357 26 18113334210769482104
22393880 68 17168427065413187200
23522609 53 18053981477875859633
23559900 14 17823700953061578817
23576562 1 15720239565026942735
3004659 81 18186237308254219096
34797466 226 17023186067023454533
4015057 19 17968396597325028416
406291 66 18272646831495858639
439807 62 18409731763819324895
474113 269 18059847369100487935
504579 68 16950280698117949411
5104073 3 13110416602557202866
54039377 194 18340208501672136470
5470011 282 18040722505794363598
5718773 13 18343580737682307275
5874358 3 17606100811740098954
6081469 158 18186516605904225759
7970288 3 18342174462083794786
96874 4 18130782378498328679

> <PUBCHEM_SHAPE_MULTIPOLES>
566.13
25.79
2.81
1.66
25.01
0.24
-0.41
23.18
-8.37
-4.36
-0.29
1.45
-0.55
-2.9

> <PUBCHEM_SHAPE_SELFOVERLAP>
1202.822

> <PUBCHEM_SHAPE_VOLUME>
317.4

> <PUBCHEM_COORDINATE_TYPE>
2
5
10

$$$$
118668481
  -OEChem-05102415133D

 44 46  0     1  0  0  0  0  0999 V2000
    3.2446    1.2165   -2.0307 F   0  0  0  0  0  0  0  0  0  0  0  0
    4.7115   -0.6909    2.0620 F   0  0  0  0  0  0  0  0  0  0  0  0
    2.6983   -2.9845   -1.4161 O   0  0  0  0  0  0  0  0  0  0  0  0
   -4.2196   -1.8280   -0.0193 O   0  0  0  0  0  0  0  0  0  0  0  0
    0.7530   -2.4352    0.7402 O   0  0  0  0  0  0  0  0  0  0  0  0
    1.6359   -0.4933   -0.1687 N   0  0  0  0  0  0  0  0  0  0  0  0
   -6.3256    2.1767   -0.6037 N   0  0  0  0  0  0  0  0  0  0  0  0
   -6.7863    1.5741    0.5057 N   0  0  0  0  0  0  0  0  0  0  0  0
    3.0130   -0.9311   -0.1946 C   0  0  2  0  0  0  0  0  0  0  0  0
    3.9553    0.2352    0.0111 C   0  0  0  0  0  0  0  0  0  0  0  0
    3.3004   -1.6962   -1.4892 C   0  0  0  0  0  0  0  0  0  0  0  0
   -0.7533   -0.7090    0.2404 C   0  0  0  0  0  0  0  0  0  0  0  0
    0.5813   -1.2835    0.3030 C   0  0  0  0  0  0  0  0  0  0  0  0
   -3.3133    0.3937    0.1240 C   0  0  0  0  0  0  0  0  0  0  0  0
    4.0161    1.2581   -0.9352 C   0  0  0  0  0  0  0  0  0  0  0  0
    4.7627    0.2875    1.1476 C   0  0  0  0  0  0  0  0  0  0  0  0
   -3.1475   -0.9907    0.0808 C   0  0  0  0  0  0  0  0  0  0  0  0
   -1.8675   -1.5420    0.1390 C   0  0  0  0  0  0  0  0  0  0  0  0
   -0.9189    0.6753    0.2836 C   0  0  0  0  0  0  0  0  0  0  0  0
   -2.1989    1.2267    0.2251 C   0  0  0  0  0  0  0  0  0  0  0  0
   -4.6240    0.9830    0.0671 C   0  0  0  0  0  0  0  0  0  0  0  0
    4.8842    2.3334   -0.7454 C   0  0  0  0  0  0  0  0  0  0  0  0
    5.6308    1.3627    1.3374 C   0  0  0  0  0  0  0  0  0  0  0  0
    5.6917    2.3855    0.3909 C   0  0  0  0  0  0  0  0  0  0  0  0
   -5.0358    1.8561   -0.9100 C   0  0  0  0  0  0  0  0  0  0  0  0
   -5.7422    0.8462    0.9111 C   0  0  0  0  0  0  0  0  0  0  0  0
   -3.9459   -3.2266   -0.0562 C   0  0  0  0  0  0  0  0  0  0  0  0
    3.1312   -1.6370    0.6374 H   0  0  0  0  0  0  0  0  0  0  0  0
    1.4305    0.3994   -0.6056 H   0  0  0  0  0  0  0  0  0  0  0  0
    2.9044   -1.1828   -2.3718 H   0  0  0  0  0  0  0  0  0  0  0  0
    4.3773   -1.8461   -1.6245 H   0  0  0  0  0  0  0  0  0  0  0  0
   -1.6802   -2.6095    0.1025 H   0  0  0  0  0  0  0  0  0  0  0  0
   -0.0816    1.3582    0.3946 H   0  0  0  0  0  0  0  0  0  0  0  0
   -2.3061    2.3081    0.2718 H   0  0  0  0  0  0  0  0  0  0  0  0
    4.9314    3.1296   -1.4824 H   0  0  0  0  0  0  0  0  0  0  0  0
    6.2594    1.4031    2.2221 H   0  0  0  0  0  0  0  0  0  0  0  0
    6.3677    3.2226    0.5387 H   0  0  0  0  0  0  0  0  0  0  0  0
    2.9055   -3.4435   -2.2478 H   0  0  0  0  0  0  0  0  0  0  0  0
   -4.5448    2.2719   -1.7792 H   0  0  0  0  0  0  0  0  0  0  0  0
   -5.8439    0.2482    1.8059 H   0  0  0  0  0  0  0  0  0  0  0  0
   -6.9479    2.7972   -1.1063 H   0  0  0  0  0  0  0  0  0  0  0  0
   -4.9104   -3.7394   -0.1346 H   0  0  0  0  0  0  0  0  0  0  0  0
   -3.3697   -3.5039   -0.9457 H   0  0  0  0  0  0  0  0  0  0  0  0
   -3.4804   -3.5738    0.8726 H   0  0  0  0  0  0  0  0  0  0  0  0
  1 15  1  0  0  0  0
  2 16  1  0  0  0  0
  3 11  1  0  0  0  0
  3 38  1  0  0  0  0
  4 17  1  0  0  0  0
  4 27  1  0  0  0  0
  5 13  2  0  0  0  0
  6  9  1  0  0  0  0
  6 13  1  0  0  0  0
  6 29  1  0  0  0  0
  7  8  1  0  0  0  0
  7 25  1  0  0  0  0
  7 41  1  0  0  0  0
  8 26  2  0  0  0  0
  9 10  1  0  0  0  0
  9 11  1  0  0  0  0
  9 28  1  0  0  0  0
 10 15  2  0  0  0  0
 10 16  1  0  0  0  0
 11 30  1  0  0  0  0
 11 31  1  0  0  0  0
 12 13  1  0  0  0  0
 12 18  2  0  0  0  0
 12 19  1  0  0  0  0
 14 17  2  0  0  0  0
 14 20  1  0  0  0  0
 14 21  1  0  0  0  0
 15 22  1  0  0  0  0
 16 23  2  0  0  0  0
 17 18  1  0  0  0  0
 18 32  1  0  0  0  0
 19 20  2  0  0  0  0
 19 33  1  0  0  0  0
 20 34  1  0  0  0  0
 21 25  2  0  0  0  0
 21 26  1  0  0  0  0
 22 24  2  0  0  0  0
 22 35  1  0  0  0  0
 23 24  1  0  0  0  0
 23 36  1  0  0  0  0
 24 37  1  0  0  0  0
 25 39  1  0  0  0  0
 26 40  1  0  0  0  0
 27 42  1  0  0  0  0
 27 43  1  0  0  0  0
 27 44  1  0  0  0  0
M  END
> <PUBCHEM_COMPOUND_CID>
118668481

> <PUBCHEM_CONFORMER_RMSD>
0.8

> <PUBCHEM_CONFORMER_DIVERSEORDER>
2
74
29
5
55
69
28
63
82
78
35
21
43
66
60
12
31
39
34
46
11
56
80
10
65
70
40
79
81
36
44
20
59
67
37
62
42
52
75
48
76
51
4
84
73
18
50
8
33
38
45
7
58
32
23
72
24
3
22
57
53
17
47
6
19
26
71
61
30
49
16
54
15
9
27
13
83
64
41
1
14
25
68
77

> <PUBCHEM_MMFF94_PARTIAL_CHARGES>
38
1 -0.19
10 -0.14
11 0.28
12 0.09
13 0.54
14 0.05
15 0.19
16 0.19
17 0.08
18 -0.15
19 -0.15
2 -0.19
20 -0.15
21 -0.05
22 -0.15
23 -0.15
24 -0.15
25 -0.3
26 0.14
27 0.28
29 0.37
3 -0.68
32 0.15
33 0.15
34 0.15
35 0.15
36 0.15
37 0.15
38 0.4
39 0.15
4 -0.36
40 0.15
41 0.27
5 -0.57
6 -0.73
7 0.3
8 -0.71
9 0.44

> <PUBCHEM_EFFECTIVE_ROTOR_COUNT>
7

> <PUBCHEM_PHARMACOPHORE_FEATURES>
10
1 3 acceptor
1 3 donor
1 4 acceptor
1 5 acceptor
1 6 donor
1 7 donor
1 8 acceptor
5 7 8 21 25 26 rings
6 10 15 16 22 23 24 rings
6 12 14 17 18 19 20 rings

> <PUBCHEM_HEAVY_ATOM_COUNT>
27

> <PUBCHEM_ATOM_DEF_STEREO_COUNT>
0

> <PUBCHEM_ATOM_UDEF_STEREO_COUNT>
1

> <PUBCHEM_BOND_DEF_STEREO_COUNT>
0

> <PUBCHEM_BOND_UDEF_STEREO_COUNT>
0

> <PUBCHEM_ISOTOPIC_ATOM_COUNT>
0

> <PUBCHEM_COMPONENT_COUNT>
1

> <PUBCHEM_CACTVS_TAUTO_COUNT>
9

> <PUBCHEM_CONFORMER_ID>
0712BCC100000002

> <PUBCHEM_MMFF94_ENERGY>
72.9316

> <PUBCHEM_FEATURE_SELFOVERLAP>
50.75

> <PUBCHEM_SHAPE_FINGERPRINT>
10 15 18114187445263087921
12107183 9 18116135693984076690
12403259 118 18263638627523978312
12422481 6 17022899008884580589
12539765 74 17702390555648360341
12616971 3 17530964700268828053
12788726 201 17392494590070349906
13533116 47 17916590821315227718
14170010 4 18130788894454164718
15131766 46 14203404974033239719
1577012 14 18260544567823798384
15840311 113 18196664991161013533
17980427 23 18187364393102465935
18222031 100 12535341286096192659
19377110 9 18040718121049726331
20511986 3 18260815017096928301
20691028 202 18127417753001538017
20715895 44 18261950756452618981
21859007 373 17606387761966057581
22149856 69 18267329585585850153
23227448 37 18335423474116984149
23559900 14 18270970024961282750
24771750 20 18052260884445047229
2748736 6 18410567350034283449
3472631 163 18410573998078713668
34797466 226 17631743775712951325
3680242 22 18187082819457902472
465052 167 7853856100816600264
5104073 3 18113900476522072123
960060 61 12463572889628623672
9981440 41 18260269693405149154

> <PUBCHEM_SHAPE_MULTIPOLES>
508.55
16.59
3.07
1.26
6.18
1.39
-0.09
-11.52
1.67
0.89
-0.64
-1.78
-0.01
0.62

> <PUBCHEM_SHAPE_SELFOVERLAP>
1109.19

> <PUBCHEM_SHAPE_VOLUME>
277.1

> <PUBCHEM_COORDINATE_TYPE>
2
5
10

$$$$
134138244
  -OEChem-05102415133D

 49 51  0     1  0  0  0  0  0999 V2000
   -1.7655    2.4593    1.1777 O   0  0  0  0  0  0  0  0  0  0  0  0
    1.9091   -2.4758    0.0947 O   0  0  0  0  0  0  0  0  0  0  0  0
    2.1219   -0.4736   -1.0555 N   0  0  0  0  0  0  0  0  0  0  0  0
   -6.0869   -0.1194    1.3519 N   0  0  0  0  0  0  0  0  0  0  0  0
   -6.3967   -0.1498    0.0445 N   0  0  0  0  0  0  0  0  0  0  0  0
   -1.8677    0.3748    0.0345 C   0  0  0  0  0  0  0  0  0  0  0  0
   -2.3427    1.7927    0.0471 C   0  0  2  0  0  0  0  0  0  0  0  0
   -2.7517   -0.6920    0.1968 C   0  0  0  0  0  0  0  0  0  0  0  0
   -1.9846    2.5971   -1.2183 C   0  0  0  0  0  0  0  0  0  0  0  0
   -0.5059    0.1310   -0.1440 C   0  0  0  0  0  0  0  0  0  0  0  0
   -0.0281   -1.1795   -0.1604 C   0  0  0  0  0  0  0  0  0  0  0  0
    3.5332   -0.5940   -1.3424 C   0  0  2  0  0  0  0  0  0  0  0  0
   -2.2739   -2.0025    0.1808 C   0  0  0  0  0  0  0  0  0  0  0  0
   -4.1603   -0.4678    0.3835 C   0  0  0  0  0  0  0  0  0  0  0  0
   -0.9122   -2.2462    0.0020 C   0  0  0  0  0  0  0  0  0  0  0  0
    1.3916   -1.4343   -0.3464 C   0  0  0  0  0  0  0  0  0  0  0  0
    4.3735   -0.0197   -0.2224 C   0  0  0  0  0  0  0  0  0  0  0  0
   -2.6531    2.0604   -2.4752 C   0  0  0  0  0  0  0  0  0  0  0  0
    3.8621    0.0290   -2.6976 C   0  0  0  0  0  0  0  0  0  0  0  0
   -4.7601   -0.3048    1.6084 C   0  0  0  0  0  0  0  0  0  0  0  0
   -5.2158   -0.3630   -0.5420 C   0  0  0  0  0  0  0  0  0  0  0  0
    5.5955   -0.6073    0.1046 C   0  0  0  0  0  0  0  0  0  0  0  0
    3.9258    1.0973    0.4830 C   0  0  0  0  0  0  0  0  0  0  0  0
    6.3701   -0.0780    1.1370 C   0  0  0  0  0  0  0  0  0  0  0  0
    4.7003    1.6268    1.5155 C   0  0  0  0  0  0  0  0  0  0  0  0
    5.9225    1.0392    1.8423 C   0  0  0  0  0  0  0  0  0  0  0  0
   -3.4233    1.8814    0.1831 H   0  0  0  0  0  0  0  0  0  0  0  0
   -2.2963    3.6391   -1.0683 H   0  0  0  0  0  0  0  0  0  0  0  0
   -0.8994    2.6439   -1.3669 H   0  0  0  0  0  0  0  0  0  0  0  0
    0.1721    0.9759   -0.2195 H   0  0  0  0  0  0  0  0  0  0  0  0
    3.7490   -1.6684   -1.4106 H   0  0  0  0  0  0  0  0  0  0  0  0
   -2.9485   -2.8466    0.3047 H   0  0  0  0  0  0  0  0  0  0  0  0
   -0.5609   -3.2747   -0.0121 H   0  0  0  0  0  0  0  0  0  0  0  0
    1.6551    0.3497   -1.4209 H   0  0  0  0  0  0  0  0  0  0  0  0
   -2.3092    1.0496   -2.7140 H   0  0  0  0  0  0  0  0  0  0  0  0
   -2.4172    2.7033   -3.3293 H   0  0  0  0  0  0  0  0  0  0  0  0
   -3.7414    2.0381   -2.3611 H   0  0  0  0  0  0  0  0  0  0  0  0
    3.6516    1.1048   -2.7042 H   0  0  0  0  0  0  0  0  0  0  0  0
    4.9197   -0.1055   -2.9488 H   0  0  0  0  0  0  0  0  0  0  0  0
    3.2623   -0.4294   -3.4916 H   0  0  0  0  0  0  0  0  0  0  0  0
   -1.9028    1.8977    1.9600 H   0  0  0  0  0  0  0  0  0  0  0  0
   -4.3762   -0.3023    2.6191 H   0  0  0  0  0  0  0  0  0  0  0  0
   -5.1768   -0.4319   -1.6201 H   0  0  0  0  0  0  0  0  0  0  0  0
    5.9565   -1.4767   -0.4384 H   0  0  0  0  0  0  0  0  0  0  0  0
    2.9857    1.5853    0.2411 H   0  0  0  0  0  0  0  0  0  0  0  0
   -6.8334    0.0331    2.0185 H   0  0  0  0  0  0  0  0  0  0  0  0
    7.3219   -0.5351    1.3912 H   0  0  0  0  0  0  0  0  0  0  0  0
    4.3536    2.4986    2.0626 H   0  0  0  0  0  0  0  0  0  0  0  0
    6.5259    1.4520    2.6454 H   0  0  0  0  0  0  0  0  0  0  0  0
  1  7  1  0  0  0  0
  1 41  1  0  0  0  0
  2 16  2  0  0  0  0
  3 12  1  0  0  0  0
  3 16  1  0  0  0  0
  3 34  1  0  0  0  0
  4  5  1  0  0  0  0
  4 20  1  0  0  0  0
  4 46  1  0  0  0  0
  5 21  2  0  0  0  0
  6  7  1  0  0  0  0
  6  8  2  0  0  0  0
  6 10  1  0  0  0  0
  7  9  1  0  0  0  0
  7 27  1  0  0  0  0
  8 13  1  0  0  0  0
  8 14  1  0  0  0  0
  9 18  1  0  0  0  0
  9 28  1  0  0  0  0
  9 29  1  0  0  0  0
 10 11  2  0  0  0  0
 10 30  1  0  0  0  0
 11 15  1  0  0  0  0
 11 16  1  0  0  0  0
 12 17  1  0  0  0  0
 12 19  1  0  0  0  0
 12 31  1  0  0  0  0
 13 15  2  0  0  0  0
 13 32  1  0  0  0  0
 14 20  2  0  0  0  0
 14 21  1  0  0  0  0
 15 33  1  0  0  0  0
 17 22  2  0  0  0  0
 17 23  1  0  0  0  0
 18 35  1  0  0  0  0
 18 36  1  0  0  0  0
 18 37  1  0  0  0  0
 19 38  1  0  0  0  0
 19 39  1  0  0  0  0
 19 40  1  0  0  0  0
 20 42  1  0  0  0  0
 21 43  1  0  0  0  0
 22 24  1  0  0  0  0
 22 44  1  0  0  0  0
 23 25  2  0  0  0  0
 23 45  1  0  0  0  0
 24 26  2  0  0  0  0
 24 47  1  0  0  0  0
 25 26  1  0  0  0  0
 25 48  1  0  0  0  0
 26 49  1  0  0  0  0
M  END
> <PUBCHEM_COMPOUND_CID>
134138244

> <PUBCHEM_CONFORMER_RMSD>
0.8

> <PUBCHEM_CONFORMER_DIVERSEORDER>
1
94
52
15
98
102
71
36
46
24
5
40
37
75
61
65
104
88
14
76
33
3
21
48
41
90
83
70
57
92
42
103
47
54
84
50
63
79
19
78
64
45
35
99
68
9
77
13
80
10
100
56
38
95
85
8
97
55
86
62
96
101
74
26
69
72
66
16
73
11
67
39
17
59
27
31
60
51
82
18
58
23
30
34
2
89
25
81
87
6
12
7
91
105
32
53
93
49
28
29
20
22
43
44
4

> <PUBCHEM_MMFF94_PARTIAL_CHARGES>
36
1 -0.68
10 -0.15
11 0.09
12 0.44
13 -0.15
14 -0.05
15 -0.15
16 0.54
17 -0.14
2 -0.57
20 -0.3
21 0.14
22 -0.15
23 -0.15
24 -0.15
25 -0.15
26 -0.15
3 -0.73
30 0.15
32 0.15
33 0.15
34 0.37
4 0.3
41 0.4
42 0.15
43 0.15
44 0.15
45 0.15
46 0.27
47 0.15
48 0.15
49 0.15
5 -0.71
6 -0.14
7 0.42
8 0.05

> <PUBCHEM_EFFECTIVE_ROTOR_COUNT>
7

> <PUBCHEM_PHARMACOPHORE_FEATURES>
10
1 1 acceptor
1 1 donor
1 18 hydrophobe
1 2 acceptor
1 3 donor
1 4 donor
1 5 acceptor
5 4 5 14 20 21 rings
6 17 22 23 24 25 26 rings
6 6 8 10 11 13 15 rings

> <PUBCHEM_HEAVY_ATOM_COUNT>
26

> <PUBCHEM_ATOM_DEF_STEREO_COUNT>
0

> <PUBCHEM_ATOM_UDEF_STEREO_COUNT>
2

> <PUBCHEM_BOND_DEF_STEREO_COUNT>
0

> <PUBCHEM_BOND_UDEF_STEREO_COUNT>
0

> <PUBCHEM_ISOTOPIC_ATOM_COUNT>
0

> <PUBCHEM_COMPONENT_COUNT>
1

> <PUBCHEM_CACTVS_TAUTO_COUNT>
11

> <PUBCHEM_CONFORMER_ID>
07FEC98400000001

> <PUBCHEM_MMFF94_ENERGY>
66.2487

> <PUBCHEM_FEATURE_SELFOVERLAP>
50.747

> <PUBCHEM_SHAPE_FINGERPRINT>
10 15 18260823835176659240
10670039 82 17970371264193916014
11595378 159 17822281366994620336
12035758 1 18336558208972235739
12166972 35 14996289132022292687
12236239 1 16805605884467024022
12403259 415 18412543189661468148
12596602 18 16371011844878261752
12616971 3 17240764037956511582
12788726 201 17530976773575319741
13140716 1 18191875740972351883
13402501 40 18201996655559805936
13533116 47 18337391544049506362
13914758 101 15574987330822804637
15840311 113 17202508631882078889
17349148 13 17167869676909592750
19319366 153 14405191629580257540
21150785 3 14764625326780356883
21315764 268 18410847772849144424
21792934 111 18261957341486309737
22182313 1 18262518078814279191
23559900 14 18198926827964506590
23569914 2 16267952231556986288
34797466 226 16702031876419839199
350125 39 18263651666760365726
392239 28 18272654549498913697
465052 167 15140957362258596834
469060 322 18114759156707466089
5080951 261 17986363746139644902
5104073 3 18191310381853365163
59755656 215 18410297978164539366
6913067 236 18261109681939297727

> <PUBCHEM_SHAPE_MULTIPOLES>
508.39
15.21
2.32
1.83
5.31
0.61
-0.66
1.05
6.01
-1.18
-0.37
1.38
0.91
1.72

> <PUBCHEM_SHAPE_SELFOVERLAP>
1094.471

> <PUBCHEM_SHAPE_VOLUME>
281.3

> <PUBCHEM_COORDINATE_TYPE>
2
5
10

$$$$
118663094
  -OEChem-05102415133D

 47 50  0     0  0  0  0  0  0999 V2000
   -1.3969   -0.9070   -1.4336 O   0  0  0  0  0  0  0  0  0  0  0  0
    3.6696   -1.1330   -1.6914 O   0  0  0  0  0  0  0  0  0  0  0  0
   -1.7591   -0.5689    0.8292 N   0  0  0  0  0  0  0  0  0  0  0  0
    6.5368    0.7499    1.3166 N   0  0  0  0  0  0  0  0  0  0  0  0
    6.7088    1.3097    0.1070 N   0  0  0  0  0  0  0  0  0  0  0  0
   -3.2145   -0.8307    0.8012 C   0  0  0  0  0  0  0  0  0  0  0  0
   -3.7318   -1.3446    2.1922 C   0  0  0  0  0  0  0  0  0  0  0  0
   -3.5266   -2.2823    0.2884 C   0  0  0  0  0  0  0  0  0  0  0  0
   -3.3990   -2.7773    1.7399 C   0  0  0  0  0  0  0  0  0  0  0  0
   -4.0189    0.3694    0.1233 C   0  0  0  0  0  0  0  0  0  0  0  0
   -4.4417    0.2661   -1.2019 C   0  0  0  0  0  0  0  0  0  0  0  0
   -4.2986    1.5225    0.8567 C   0  0  0  0  0  0  0  0  0  0  0  0
   -0.9735   -0.6333   -0.3135 C   0  0  0  0  0  0  0  0  0  0  0  0
   -5.1444    1.3157   -1.7939 C   0  0  0  0  0  0  0  0  0  0  0  0
   -5.0013    2.5723    0.2648 C   0  0  0  0  0  0  0  0  0  0  0  0
    0.4676   -0.3239   -0.1334 C   0  0  0  0  0  0  0  0  0  0  0  0
   -5.4244    2.4687   -1.0604 C   0  0  0  0  0  0  0  0  0  0  0  0
    1.4129   -0.8735   -0.9995 C   0  0  0  0  0  0  0  0  0  0  0  0
    0.8758    0.5180    0.9012 C   0  0  0  0  0  0  0  0  0  0  0  0
    2.7664   -0.5812   -0.8312 C   0  0  0  0  0  0  0  0  0  0  0  0
    3.1746    0.2607    0.2035 C   0  0  0  0  0  0  0  0  0  0  0  0
    2.2293    0.8100    1.0697 C   0  0  0  0  0  0  0  0  0  0  0  0
    4.5647    0.5766    0.3940 C   0  0  0  0  0  0  0  0  0  0  0  0
    5.2703    0.2950    1.5383 C   0  0  0  0  0  0  0  0  0  0  0  0
    5.5008    1.2009   -0.4520 C   0  0  0  0  0  0  0  0  0  0  0  0
    3.1530   -1.9797   -2.7153 C   0  0  0  0  0  0  0  0  0  0  0  0
   -4.8037   -1.1823    2.3607 H   0  0  0  0  0  0  0  0  0  0  0  0
   -3.1892   -0.9961    3.0761 H   0  0  0  0  0  0  0  0  0  0  0  0
   -2.8284   -2.7479   -0.4118 H   0  0  0  0  0  0  0  0  0  0  0  0
   -4.5406   -2.4162   -0.1100 H   0  0  0  0  0  0  0  0  0  0  0  0
   -4.1114   -3.5486    2.0431 H   0  0  0  0  0  0  0  0  0  0  0  0
   -2.3880   -3.1034    2.0096 H   0  0  0  0  0  0  0  0  0  0  0  0
   -1.3200   -0.3823    1.7262 H   0  0  0  0  0  0  0  0  0  0  0  0
   -4.2281   -0.6200   -1.7923 H   0  0  0  0  0  0  0  0  0  0  0  0
   -3.9708    1.6145    1.8885 H   0  0  0  0  0  0  0  0  0  0  0  0
   -5.4722    1.2360   -2.8262 H   0  0  0  0  0  0  0  0  0  0  0  0
   -5.2184    3.4705    0.8355 H   0  0  0  0  0  0  0  0  0  0  0  0
   -5.9711    3.2861   -1.5214 H   0  0  0  0  0  0  0  0  0  0  0  0
    1.0390   -1.5259   -1.7809 H   0  0  0  0  0  0  0  0  0  0  0  0
    0.1708    0.9936    1.5764 H   0  0  0  0  0  0  0  0  0  0  0  0
    2.5247    1.4782    1.8756 H   0  0  0  0  0  0  0  0  0  0  0  0
    4.9988   -0.1782    2.4719 H   0  0  0  0  0  0  0  0  0  0  0  0
    5.3568    1.5832   -1.4529 H   0  0  0  0  0  0  0  0  0  0  0  0
    4.0079   -2.3269   -3.3052 H   0  0  0  0  0  0  0  0  0  0  0  0
    2.4987   -1.4326   -3.4028 H   0  0  0  0  0  0  0  0  0  0  0  0
    2.6745   -2.8732   -2.2998 H   0  0  0  0  0  0  0  0  0  0  0  0
    7.3300    0.7109    1.9444 H   0  0  0  0  0  0  0  0  0  0  0  0
  1 13  2  0  0  0  0
  2 20  1  0  0  0  0
  2 26  1  0  0  0  0
  3  6  1  0  0  0  0
  3 13  1  0  0  0  0
  3 33  1  0  0  0  0
  4  5  1  0  0  0  0
  4 24  1  0  0  0  0
  4 47  1  0  0  0  0
  5 25  2  0  0  0  0
  6  7  1  0  0  0  0
  6  8  1  0  0  0  0
  6 10  1  0  0  0  0
  7  9  1  0  0  0  0
  7 27  1  0  0  0  0
  7 28  1  0  0  0  0
  8  9  1  0  0  0  0
  8 29  1  0  0  0  0
  8 30  1  0  0  0  0
  9 31  1  0  0  0  0
  9 32  1  0  0  0  0
 10 11  2  0  0  0  0
 10 12  1  0  0  0  0
 11 14  1  0  0  0  0
 11 34  1  0  0  0  0
 12 15  2  0  0  0  0
 12 35  1  0  0  0  0
 13 16  1  0  0  0  0
 14 17  2  0  0  0  0
 14 36  1  0  0  0  0
 15 17  1  0  0  0  0
 15 37  1  0  0  0  0
 16 18  2  0  0  0  0
 16 19  1  0  0  0  0
 17 38  1  0  0  0  0
 18 20  1  0  0  0  0
 18 39  1  0  0  0  0
 19 22  2  0  0  0  0
 19 40  1  0  0  0  0
 20 21  2  0  0  0  0
 21 22  1  0  0  0  0
 21 23  1  0  0  0  0
 22 41  1  0  0  0  0
 23 24  2  0  0  0  0
 23 25  1  0  0  0  0
 24 42  1  0  0  0  0
 25 43  1  0  0  0  0
 26 44  1  0  0  0  0
 26 45  1  0  0  0  0
 26 46  1  0  0  0  0
M  END
> <PUBCHEM_COMPOUND_CID>
118663094

> <PUBCHEM_CONFORMER_RMSD>
0.8

> <PUBCHEM_CONFORMER_DIVERSEORDER>
2
22
7
9
15
13
20
3
17
11
10
14
8
16
18
6
5
12
21
19
4
1

> <PUBCHEM_MMFF94_PARTIAL_CHARGES>
35
1 -0.57
10 -0.11
11 -0.15
12 -0.15
13 0.54
14 -0.15
15 -0.15
16 0.09
17 -0.15
18 -0.15
19 -0.15
2 -0.36
20 0.08
21 0.05
22 -0.15
23 -0.05
24 -0.3
25 0.14
26 0.28
3 -0.65
33 0.37
34 0.15
35 0.15
36 0.15
37 0.15
38 0.15
39 0.15
4 0.3
40 0.15
41 0.15
42 0.15
43 0.15
47 0.27
5 -0.71
6 0.33

> <PUBCHEM_EFFECTIVE_ROTOR_COUNT>
6.8

> <PUBCHEM_PHARMACOPHORE_FEATURES>
9
1 1 acceptor
1 2 acceptor
1 3 donor
1 4 donor
1 5 acceptor
4 6 7 8 9 rings
5 4 5 23 24 25 rings
6 10 11 12 14 15 17 rings
6 16 18 19 20 21 22 rings

> <PUBCHEM_HEAVY_ATOM_COUNT>
26

> <PUBCHEM_ATOM_DEF_STEREO_COUNT>
0

> <PUBCHEM_ATOM_UDEF_STEREO_COUNT>
0

> <PUBCHEM_BOND_DEF_STEREO_COUNT>
0

> <PUBCHEM_BOND_UDEF_STEREO_COUNT>
0

> <PUBCHEM_ISOTOPIC_ATOM_COUNT>
0

> <PUBCHEM_COMPONENT_COUNT>
1

> <PUBCHEM_CACTVS_TAUTO_COUNT>
9

> <PUBCHEM_CONFORMER_ID>
0712A7B600000002

> <PUBCHEM_MMFF94_ENERGY>
81.4595

> <PUBCHEM_FEATURE_SELFOVERLAP>
45.673

> <PUBCHEM_SHAPE_FINGERPRINT>
10291535 26 18413108351644710777
105312 117 18186800237012235669
10763959 59 18201720674257989440
11049842 53 17387148493473127934
11315181 36 17458340900702902387
11545043 162 18334856177118712736
12236239 1 16370722638696563792
12422481 6 16081361904425351234
12616971 3 15213024851230988614
13583140 156 18341328985081717907
14068700 675 17605558975819263451
15021287 119 14851604384101630582
15081414 286 17489042530132279752
15131766 46 13264406633517240519
15183329 4 16917063334966794860
15238133 3 17095528348594522324
17093844 174 18335411409311354104
17349148 13 14692568801994055103
17780758 139 12973603314166969805
17844677 252 18115312313971668880
18681886 176 12895063038226016250
19377110 9 15936988434169387364
19489759 90 18334007324530985235
20645477 70 17560526105384685342
21033648 144 17561087998997477015
21033648 29 18042976376610817693
21130935 74 17603576470580833472
21150785 3 13398622888353408992
23081809 10 16877660201919516016
23522609 53 16588323665504540860
23559900 14 18264225624978789206
23569914 152 15978373764272194948
312425 54 17385713708671943744
32027 91 18127141770881959734
4169191 19 14997139141237928902
484985 159 13479134636172026561
5104073 3 17894913996881873579
7226269 152 18187640276248716441
9849439 229 17753887208906054317

> <PUBCHEM_SHAPE_MULTIPOLES>
508.39
15.92
2.39
1.99
12.29
0.35
0.79
-8.59
-1.67
-4.39
-0.22
0.61
0.84
2.9

> <PUBCHEM_SHAPE_SELFOVERLAP>
1111.481

> <PUBCHEM_SHAPE_VOLUME>
277.4

> <PUBCHEM_COORDINATE_TYPE>
2
5
10

$$$$
118663089
  -OEChem-05102415133D

 46 48  0     0  0  0  0  0  0999 V2000
   -2.5154    1.6741    1.2042 O   0  0  0  0  0  0  0  0  0  0  0  0
    1.0815   -2.9913    0.7225 O   0  0  0  0  0  0  0  0  0  0  0  0
    1.8557   -0.8082    0.8306 N   0  0  0  0  0  0  0  0  0  0  0  0
   -6.2589    0.7386   -1.2290 N   0  0  0  0  0  0  0  0  0  0  0  0
   -6.5776    0.8700    0.0699 N   0  0  0  0  0  0  0  0  0  0  0  0
    4.1591   -0.0643    0.5016 C   0  0  0  0  0  0  0  0  0  0  0  0
    4.3796    0.0758   -0.8686 C   0  0  0  0  0  0  0  0  0  0  0  0
    3.2493   -1.1342    1.0323 C   0  0  0  0  0  0  0  0  0  0  0  0
    3.7172   -0.8341   -1.8504 C   0  0  0  0  0  0  0  0  0  0  0  0
   -0.5030   -1.2821    0.4655 C   0  0  0  0  0  0  0  0  0  0  0  0
    4.7879    0.7968    1.4009 C   0  0  0  0  0  0  0  0  0  0  0  0
    5.2290    1.0771   -1.3396 C   0  0  0  0  0  0  0  0  0  0  0  0
   -3.0959   -0.3456    0.0373 C   0  0  0  0  0  0  0  0  0  0  0  0
    0.8489   -1.7700    0.6868 C   0  0  0  0  0  0  0  0  0  0  0  0
   -2.1747    0.4426    0.7273 C   0  0  0  0  0  0  0  0  0  0  0  0
   -0.8783   -0.0257    0.9414 C   0  0  0  0  0  0  0  0  0  0  0  0
   -1.4244   -2.0703   -0.2244 C   0  0  0  0  0  0  0  0  0  0  0  0
   -2.7208   -1.6021   -0.4383 C   0  0  0  0  0  0  0  0  0  0  0  0
    2.5378   -0.1678   -2.5525 C   0  0  0  0  0  0  0  0  0  0  0  0
    5.6373    1.7982    0.9300 C   0  0  0  0  0  0  0  0  0  0  0  0
   -4.4369    0.1186   -0.1960 C   0  0  0  0  0  0  0  0  0  0  0  0
    5.8581    1.9381   -0.4402 C   0  0  0  0  0  0  0  0  0  0  0  0
   -4.9880    0.2916   -1.4422 C   0  0  0  0  0  0  0  0  0  0  0  0
   -5.4608    0.4899    0.6962 C   0  0  0  0  0  0  0  0  0  0  0  0
   -2.3069    2.7844    0.3346 C   0  0  0  0  0  0  0  0  0  0  0  0
    3.4898   -2.1214    0.6246 H   0  0  0  0  0  0  0  0  0  0  0  0
    3.3789   -1.2366    2.1171 H   0  0  0  0  0  0  0  0  0  0  0  0
    4.4563   -1.1246   -2.6094 H   0  0  0  0  0  0  0  0  0  0  0  0
    3.3907   -1.7827   -1.4186 H   0  0  0  0  0  0  0  0  0  0  0  0
    1.6243    0.1780    0.7769 H   0  0  0  0  0  0  0  0  0  0  0  0
    4.6254    0.7028    2.4714 H   0  0  0  0  0  0  0  0  0  0  0  0
    5.4106    1.1976   -2.4044 H   0  0  0  0  0  0  0  0  0  0  0  0
   -0.1990    0.6015    1.5120 H   0  0  0  0  0  0  0  0  0  0  0  0
   -1.1507   -3.0503   -0.6068 H   0  0  0  0  0  0  0  0  0  0  0  0
   -3.4237   -2.2344   -0.9759 H   0  0  0  0  0  0  0  0  0  0  0  0
    2.0761   -0.8669   -3.2572 H   0  0  0  0  0  0  0  0  0  0  0  0
    2.8557    0.7153   -3.1169 H   0  0  0  0  0  0  0  0  0  0  0  0
    1.7713    0.1508   -1.8395 H   0  0  0  0  0  0  0  0  0  0  0  0
    6.1266    2.4691    1.6300 H   0  0  0  0  0  0  0  0  0  0  0  0
    6.5195    2.7177   -0.8067 H   0  0  0  0  0  0  0  0  0  0  0  0
   -4.6046    0.1443   -2.4425 H   0  0  0  0  0  0  0  0  0  0  0  0
   -5.4438    0.5003    1.7770 H   0  0  0  0  0  0  0  0  0  0  0  0
   -6.9595    0.9730   -1.9211 H   0  0  0  0  0  0  0  0  0  0  0  0
   -2.6697    3.6852    0.8372 H   0  0  0  0  0  0  0  0  0  0  0  0
   -2.8600    2.6611   -0.6016 H   0  0  0  0  0  0  0  0  0  0  0  0
   -1.2398    2.9079    0.1244 H   0  0  0  0  0  0  0  0  0  0  0  0
  1 15  1  0  0  0  0
  1 25  1  0  0  0  0
  2 14  2  0  0  0  0
  3  8  1  0  0  0  0
  3 14  1  0  0  0  0
  3 30  1  0  0  0  0
  4  5  1  0  0  0  0
  4 23  1  0  0  0  0
  4 43  1  0  0  0  0
  5 24  2  0  0  0  0
  6  7  1  0  0  0  0
  6  8  1  0  0  0  0
  6 11  2  0  0  0  0
  7  9  1  0  0  0  0
  7 12  2  0  0  0  0
  8 26  1  0  0  0  0
  8 27  1  0  0  0  0
  9 19  1  0  0  0  0
  9 28  1  0  0  0  0
  9 29  1  0  0  0  0
 10 14  1  0  0  0  0
 10 16  2  0  0  0  0
 10 17  1  0  0  0  0
 11 20  1  0  0  0  0
 11 31  1  0  0  0  0
 12 22  1  0  0  0  0
 12 32  1  0  0  0  0
 13 15  2  0  0  0  0
 13 18  1  0  0  0  0
 13 21  1  0  0  0  0
 15 16  1  0  0  0  0
 16 33  1  0  0  0  0
 17 18  2  0  0  0  0
 17 34  1  0  0  0  0
 18 35  1  0  0  0  0
 19 36  1  0  0  0  0
 19 37  1  0  0  0  0
 19 38  1  0  0  0  0
 20 22  2  0  0  0  0
 20 39  1  0  0  0  0
 21 23  2  0  0  0  0
 21 24  1  0  0  0  0
 22 40  1  0  0  0  0
 23 41  1  0  0  0  0
 24 42  1  0  0  0  0
 25 44  1  0  0  0  0
 25 45  1  0  0  0  0
 25 46  1  0  0  0  0
M  END
> <PUBCHEM_COMPOUND_CID>
118663089

> <PUBCHEM_CONFORMER_RMSD>
0.8

> <PUBCHEM_CONFORMER_DIVERSEORDER>
1
27
74
89
97
45
68
59
34
99
30
39
48
36
63
87
32
82
28
25
70
64
94
20
8
24
83
35
67
60
44
37
77
95
93
66
16
31
17
76
80
57
78
92
75
62
47
46
73
53
96
11
69
33
9
100
72
98
58
52
84
23
61
85
56
65
12
29
2
42
81
51
38
55
21
79
15
14
50
41
43
86
18
5
88
40
6
22
54
49
13
19
3
26
4
91
10
71
7
90

> <PUBCHEM_MMFF94_PARTIAL_CHARGES>
35
1 -0.36
10 0.09
11 -0.15
12 -0.15
13 0.05
14 0.54
15 0.08
16 -0.15
17 -0.15
18 -0.15
2 -0.57
20 -0.15
21 -0.05
22 -0.15
23 -0.3
24 0.14
25 0.28
3 -0.73
30 0.37
31 0.15
32 0.15
33 0.15
34 0.15
35 0.15
39 0.15
4 0.3
40 0.15
41 0.15
42 0.15
43 0.27
5 -0.71
6 -0.14
7 -0.14
8 0.44
9 0.14

> <PUBCHEM_EFFECTIVE_ROTOR_COUNT>
7

> <PUBCHEM_PHARMACOPHORE_FEATURES>
9
1 1 acceptor
1 19 hydrophobe
1 2 acceptor
1 3 donor
1 4 donor
1 5 acceptor
5 4 5 21 23 24 rings
6 10 13 15 16 17 18 rings
6 6 7 11 12 20 22 rings

> <PUBCHEM_HEAVY_ATOM_COUNT>
25

> <PUBCHEM_ATOM_DEF_STEREO_COUNT>
0

> <PUBCHEM_ATOM_UDEF_STEREO_COUNT>
0

> <PUBCHEM_BOND_DEF_STEREO_COUNT>
0

> <PUBCHEM_BOND_UDEF_STEREO_COUNT>
0

> <PUBCHEM_ISOTOPIC_ATOM_COUNT>
0

> <PUBCHEM_COMPONENT_COUNT>
1

> <PUBCHEM_CACTVS_TAUTO_COUNT>
45

> <PUBCHEM_CONFORMER_ID>
0712A7B100000001

> <PUBCHEM_MMFF94_ENERGY>
72.0637

> <PUBCHEM_FEATURE_SELFOVERLAP>
45.671

> <PUBCHEM_SHAPE_FINGERPRINT>
10319926 262 13623799497618815855
10498660 4 18411703214122321530
10670039 82 18336555906743345972
10692045 39 15068613851477485056
10906281 52 18200036132497219883
10928967 22 11671784819418652636
11796584 16 12895066319406918189
12403259 118 17095812129979180906
12422481 6 16805592630023811038
12596602 18 17240766237364584104
12670546 177 17632579361795404250
13533116 47 18339360756247026638
13551218 46 8286208261823803577
1361 2 17131826620826157032
13668630 136 13110967539022925548
13782708 43 12319155327677002317
14341114 176 12468635045621545110
14528608 73 18342735217292635939
14790565 3 18127976309039241977
14840074 17 18409171004557908113
15183329 4 15123516878595540219
15348495 7 13479141206701829317
15575132 122 18339641144929346837
18222031 100 10303814284978589858
1979834 28 17458065937044630486
20567600 234 16081379561299389195
21049683 271 18409724102526525237
21298829 104 18259985959339047901
22122407 14 16370738027443625500
221357 26 17561084696294441344
235170 7 17275390893525829284
23559900 14 17845365716536086240
3004659 81 12823296805968602258
312425 54 13262397765094715073
3472631 163 18339361967569670420
34797466 226 17846782909830499845
351380 3 11527953356903001140
4340502 62 16950285075006181451
465052 167 10735870711949404625
474 4 17822014185748666306
53794403 172 18194681703353292592
54039377 194 11527685081005045068
56633871 153 8646767798606291889
57724786 102 16298673901561630990
59682541 52 16773518776229749604
7970288 3 11383845856908763652
8509985 295 15357700790527076430
8863177 126 12462987992276483637
960060 61 15841836655263416722

> <PUBCHEM_SHAPE_MULTIPOLES>
487.81
15.74
2.31
1.65
3.85
0.08
-0.86
-9.14
-2.97
-0.41
0.51
-1.48
0.03
-0.01

> <PUBCHEM_SHAPE_SELFOVERLAP>
1054.741

> <PUBCHEM_SHAPE_VOLUME>
268.8

> <PUBCHEM_COORDINATE_TYPE>
2
5
10

$$$$
90354232
  -OEChem-05102415133D

 43 45  0     1  0  0  0  0  0999 V2000
    4.7394   -2.8154    1.5861 F   0  0  0  0  0  0  0  0  0  0  0  0
    6.3330   -0.5502   -2.2557 F   0  0  0  0  0  0  0  0  0  0  0  0
   -2.4969   -1.8668   -0.4428 O   0  0  0  0  0  0  0  0  0  0  0  0
    0.6292    3.1493   -0.3974 O   0  0  0  0  0  0  0  0  0  0  0  0
    1.4769    1.1285    0.3605 N   0  0  0  0  0  0  0  0  0  0  0  0
   -6.8238   -0.7593    0.4848 N   0  0  0  0  0  0  0  0  0  0  0  0
   -6.7383   -1.2768   -0.7525 N   0  0  0  0  0  0  0  0  0  0  0  0
    2.8553    1.5517    0.4604 C   0  0  2  0  0  0  0  0  0  0  0  0
    3.8043    0.4067    0.1788 C   0  0  0  0  0  0  0  0  0  0  0  0
    3.1195    2.2100    1.8129 C   0  0  0  0  0  0  0  0  0  0  0  0
   -0.8992    1.3978   -0.0902 C   0  0  0  0  0  0  0  0  0  0  0  0
    0.4396    1.9651   -0.0674 C   0  0  0  0  0  0  0  0  0  0  0  0
   -3.4678    0.3097   -0.1302 C   0  0  0  0  0  0  0  0  0  0  0  0
   -2.3564   -0.5204   -0.2771 C   0  0  0  0  0  0  0  0  0  0  0  0
    4.6481    0.4570   -0.9306 C   0  0  0  0  0  0  0  0  0  0  0  0
    3.8353   -0.6986    1.0293 C   0  0  0  0  0  0  0  0  0  0  0  0
   -1.0721    0.0238   -0.2570 C   0  0  0  0  0  0  0  0  0  0  0  0
   -2.0107    2.2279    0.0567 C   0  0  0  0  0  0  0  0  0  0  0  0
   -3.2949    1.6838    0.0364 C   0  0  0  0  0  0  0  0  0  0  0  0
   -4.8006   -0.2305   -0.1461 C   0  0  0  0  0  0  0  0  0  0  0  0
    4.7101   -1.7537    0.7701 C   0  0  0  0  0  0  0  0  0  0  0  0
    5.5228   -0.5983   -1.1901 C   0  0  0  0  0  0  0  0  0  0  0  0
    5.5538   -1.7036   -0.3396 C   0  0  0  0  0  0  0  0  0  0  0  0
   -5.6897   -0.1222    0.8953 C   0  0  0  0  0  0  0  0  0  0  0  0
   -5.5002   -0.9507   -1.1328 C   0  0  0  0  0  0  0  0  0  0  0  0
   -2.5165   -2.6649    0.7383 C   0  0  0  0  0  0  0  0  0  0  0  0
    3.0094    2.3263   -0.3022 H   0  0  0  0  0  0  0  0  0  0  0  0
    1.2548    0.2028    0.7118 H   0  0  0  0  0  0  0  0  0  0  0  0
    2.9058    1.5329    2.6476 H   0  0  0  0  0  0  0  0  0  0  0  0
    2.4839    3.0928    1.9458 H   0  0  0  0  0  0  0  0  0  0  0  0
    4.1635    2.5309    1.8981 H   0  0  0  0  0  0  0  0  0  0  0  0
   -0.2307   -0.6477   -0.4059 H   0  0  0  0  0  0  0  0  0  0  0  0
    4.6362    1.3105   -1.6029 H   0  0  0  0  0  0  0  0  0  0  0  0
    3.1836   -0.7589    1.8966 H   0  0  0  0  0  0  0  0  0  0  0  0
   -1.8974    3.3004    0.1917 H   0  0  0  0  0  0  0  0  0  0  0  0
   -4.1474    2.3497    0.1494 H   0  0  0  0  0  0  0  0  0  0  0  0
    6.2347   -2.5251   -0.5415 H   0  0  0  0  0  0  0  0  0  0  0  0
   -5.6255    0.3369    1.8722 H   0  0  0  0  0  0  0  0  0  0  0  0
   -5.1633   -1.2531   -2.1145 H   0  0  0  0  0  0  0  0  0  0  0  0
   -7.6894   -0.8784    0.9961 H   0  0  0  0  0  0  0  0  0  0  0  0
   -2.6839   -3.7050    0.4453 H   0  0  0  0  0  0  0  0  0  0  0  0
   -3.3249   -2.3573    1.4086 H   0  0  0  0  0  0  0  0  0  0  0  0
   -1.5552   -2.5992    1.2578 H   0  0  0  0  0  0  0  0  0  0  0  0
  1 21  1  0  0  0  0
  2 22  1  0  0  0  0
  3 14  1  0  0  0  0
  3 26  1  0  0  0  0
  4 12  2  0  0  0  0
  5  8  1  0  0  0  0
  5 12  1  0  0  0  0
  5 28  1  0  0  0  0
  6  7  1  0  0  0  0
  6 24  1  0  0  0  0
  6 40  1  0  0  0  0
  7 25  2  0  0  0  0
  8  9  1  0  0  0  0
  8 10  1  0  0  0  0
  8 27  1  0  0  0  0
  9 15  2  0  0  0  0
  9 16  1  0  0  0  0
 10 29  1  0  0  0  0
 10 30  1  0  0  0  0
 10 31  1  0  0  0  0
 11 12  1  0  0  0  0
 11 17  2  0  0  0  0
 11 18  1  0  0  0  0
 13 14  2  0  0  0  0
 13 19  1  0  0  0  0
 13 20  1  0  0  0  0
 14 17  1  0  0  0  0
 15 22  1  0  0  0  0
 15 33  1  0  0  0  0
 16 21  2  0  0  0  0
 16 34  1  0  0  0  0
 17 32  1  0  0  0  0
 18 19  2  0  0  0  0
 18 35  1  0  0  0  0
 19 36  1  0  0  0  0
 20 24  2  0  0  0  0
 20 25  1  0  0  0  0
 21 23  1  0  0  0  0
 22 23  2  0  0  0  0
 23 37  1  0  0  0  0
 24 38  1  0  0  0  0
 25 39  1  0  0  0  0
 26 41  1  0  0  0  0
 26 42  1  0  0  0  0
 26 43  1  0  0  0  0
M  END
> <PUBCHEM_COMPOUND_CID>
90354232

> <PUBCHEM_CONFORMER_RMSD>
0.8

> <PUBCHEM_CONFORMER_DIVERSEORDER>
1
23
55
16
54
30
47
49
4
13
31
29
50
20
14
51
10
25
28
42
48
53
17
27
40
9
41
26
6
18
34
24
22
35
3
43
11
44
19
36
45
21
8
46
32
12
15
33
37
39
5
52
2
38
7

> <PUBCHEM_MMFF94_PARTIAL_CHARGES>
35
1 -0.19
11 0.09
12 0.54
13 0.05
14 0.08
15 -0.15
16 -0.15
17 -0.15
18 -0.15
19 -0.15
2 -0.19
20 -0.05
21 0.19
22 0.19
23 -0.15
24 -0.3
25 0.14
26 0.28
28 0.37
3 -0.36
32 0.15
33 0.15
34 0.15
35 0.15
36 0.15
37 0.15
38 0.15
39 0.15
4 -0.57
40 0.27
5 -0.73
6 0.3
7 -0.71
8 0.44
9 -0.14

> <PUBCHEM_EFFECTIVE_ROTOR_COUNT>
6

> <PUBCHEM_PHARMACOPHORE_FEATURES>
8
1 3 acceptor
1 4 acceptor
1 5 donor
1 6 donor
1 7 acceptor
5 6 7 20 24 25 rings
6 11 13 14 17 18 19 rings
6 9 15 16 21 22 23 rings

> <PUBCHEM_HEAVY_ATOM_COUNT>
26

> <PUBCHEM_ATOM_DEF_STEREO_COUNT>
0

> <PUBCHEM_ATOM_UDEF_STEREO_COUNT>
1

> <PUBCHEM_BOND_DEF_STEREO_COUNT>
0

> <PUBCHEM_BOND_UDEF_STEREO_COUNT>
0

> <PUBCHEM_ISOTOPIC_ATOM_COUNT>
0

> <PUBCHEM_COMPONENT_COUNT>
1

> <PUBCHEM_CACTVS_TAUTO_COUNT>
7

> <PUBCHEM_CONFORMER_ID>
0562B23800000001

> <PUBCHEM_MMFF94_ENERGY>
71.0515

> <PUBCHEM_FEATURE_SELFOVERLAP>
40.597

> <PUBCHEM_SHAPE_FINGERPRINT>
10 15 12175616309057307197
10319926 262 16486982765051181057
10622 236 17462833286820042962
10692045 39 17274833454089366623
117089 54 18055083064632190070
11991303 11 17462838779851534645
12166972 35 18130791195955417969
12422481 6 17060621126850884269
12760667 363 18413671309834190073
13402501 40 18343587321856707278
13533116 47 18201717409386434561
13551218 46 18413385445543373155
13673619 4 18272092678083689964
13685833 64 18343584044838702136
13782708 43 17774998025120846215
13862211 1 18412821404821246095
14211702 104 18197495349793546607
14216079 64 18413386540918282887
14347332 77 18337384955268545501
14528608 73 13118001102015463009
14565420 104 17200494506753004808
14617045 38 18408609162389544610
14931854 50 18114748136106195158
15183329 4 18412546509323281447
15348495 7 14333116503259038191
15537594 2 18334297578220694098
17349148 13 18130791183117748061
17857418 61 18411976953477784058
1813 80 17676480661785044820
19319366 153 17821723923564761290
20028762 73 17989483043632340671
20403669 9 18343022181533060486
21150785 3 15357982295800614253
21267235 1 18412550907221865685
21279426 13 18338785754989841373
21304303 94 17458063755601944002
21682296 61 18411983555517887555
2215653 11 18408880763394418135
23016692 55 18341621412414716628
23522609 53 18124066535142261705
23559900 14 18338514278121956697
23569943 247 18270683065464614619
2748736 6 9151169840111439115
3004659 81 18114180813944202862
3383291 50 18410006650438270315
3472631 163 9295281759574784288
351380 3 18412544301556779366
38570 142 13325704428777976938
4073 2 18193837274090315248
439807 62 18114463370514258954
46194498 28 17095522937289092700
465052 167 18202003218380389572
5104073 3 18059850649601460305
54039377 194 18189335668067053810
543368 44 11746933196935178175
6138700 20 18411138022459800119
960060 61 18040718065409998516

> <PUBCHEM_SHAPE_MULTIPOLES>
493.84
17.07
2.84
1.27
3.97
0.32
0.04
-10.22
2.64
-1.25
-0.72
-1.76
-0.24
-0.09

> <PUBCHEM_SHAPE_SELFOVERLAP>
1075.503

> <PUBCHEM_SHAPE_VOLUME>
270.6

> <PUBCHEM_COORDINATE_TYPE>
2
5
10

$$$$
118668475
  -OEChem-05102415133D

 45 47  0     0  0  0  0  0  0999 V2000
   -0.5966    0.9066   -1.7872 O   0  0  0  0  0  0  0  0  0  0  0  0
   -6.4635    1.1876    1.3913 O   0  0  0  0  0  0  0  0  0  0  0  0
   -5.5119    2.0861   -0.5024 O   0  0  0  0  0  0  0  0  0  0  0  0
   -0.6833   -1.3578   -1.2957 N   0  0  0  0  0  0  0  0  0  0  0  0
    7.3253   -0.5200    1.1122 N   0  0  0  0  0  0  0  0  0  0  0  0
    7.2468    0.7290    1.6021 N   0  0  0  0  0  0  0  0  0  0  0  0
    3.9406    0.0550    0.1129 C   0  0  0  0  0  0  0  0  0  0  0  0
    3.5088    0.9693   -0.8481 C   0  0  0  0  0  0  0  0  0  0  0  0
    1.3203   -0.0546   -0.8387 C   0  0  0  0  0  0  0  0  0  0  0  0
    2.1987    0.9144   -1.3239 C   0  0  0  0  0  0  0  0  0  0  0  0
   -2.0292   -1.5816   -1.7725 C   0  0  0  0  0  0  0  0  0  0  0  0
    3.0623   -0.9142    0.5979 C   0  0  0  0  0  0  0  0  0  0  0  0
    5.2865    0.0894    0.6193 C   0  0  0  0  0  0  0  0  0  0  0  0
   -3.0500   -1.3746   -0.6912 C   0  0  0  0  0  0  0  0  0  0  0  0
    1.7522   -0.9689    0.1223 C   0  0  0  0  0  0  0  0  0  0  0  0
   -0.0457   -0.1124   -1.3344 C   0  0  0  0  0  0  0  0  0  0  0  0
    4.4216    2.0214   -1.3923 C   0  0  0  0  0  0  0  0  0  0  0  0
   -3.8301   -0.2183   -0.6799 C   0  0  0  0  0  0  0  0  0  0  0  0
   -3.2191   -2.3397    0.3018 C   0  0  0  0  0  0  0  0  0  0  0  0
    6.1778   -0.9504    0.5136 C   0  0  0  0  0  0  0  0  0  0  0  0
   -4.7790   -0.0269    0.3244 C   0  0  0  0  0  0  0  0  0  0  0  0
    5.9992    1.0961    1.2980 C   0  0  0  0  0  0  0  0  0  0  0  0
   -4.1684   -2.1485    1.3059 C   0  0  0  0  0  0  0  0  0  0  0  0
   -4.9482   -0.9920    1.3173 C   0  0  0  0  0  0  0  0  0  0  0  0
   -5.5927    1.1785    0.3359 C   0  0  0  0  0  0  0  0  0  0  0  0
   -7.3224    2.3267    1.5114 C   0  0  0  0  0  0  0  0  0  0  0  0
    1.8656    1.6266   -2.0754 H   0  0  0  0  0  0  0  0  0  0  0  0
   -2.0832   -2.6106   -2.1460 H   0  0  0  0  0  0  0  0  0  0  0  0
   -2.2225   -0.9219   -2.6263 H   0  0  0  0  0  0  0  0  0  0  0  0
    3.3747   -1.6295    1.3554 H   0  0  0  0  0  0  0  0  0  0  0  0
    1.0932   -1.7178    0.5517 H   0  0  0  0  0  0  0  0  0  0  0  0
   -0.1830   -2.1768   -0.9672 H   0  0  0  0  0  0  0  0  0  0  0  0
    5.3798    1.5941   -1.7063 H   0  0  0  0  0  0  0  0  0  0  0  0
    3.9945    2.5020   -2.2800 H   0  0  0  0  0  0  0  0  0  0  0  0
    4.5918    2.8057   -0.6483 H   0  0  0  0  0  0  0  0  0  0  0  0
   -3.6921    0.5304   -1.4564 H   0  0  0  0  0  0  0  0  0  0  0  0
   -2.6172   -3.2446    0.3032 H   0  0  0  0  0  0  0  0  0  0  0  0
    6.1080   -1.9370    0.0767 H   0  0  0  0  0  0  0  0  0  0  0  0
    5.6653    2.0818    1.5903 H   0  0  0  0  0  0  0  0  0  0  0  0
   -4.2996   -2.9003    2.0787 H   0  0  0  0  0  0  0  0  0  0  0  0
   -5.6742   -0.8860    2.1184 H   0  0  0  0  0  0  0  0  0  0  0  0
    8.1963   -1.0243    1.2210 H   0  0  0  0  0  0  0  0  0  0  0  0
   -7.9521    2.1867    2.3939 H   0  0  0  0  0  0  0  0  0  0  0  0
   -7.9644    2.4092    0.6294 H   0  0  0  0  0  0  0  0  0  0  0  0
   -6.7274    3.2352    1.6429 H   0  0  0  0  0  0  0  0  0  0  0  0
  1 16  2  0  0  0  0
  2 25  1  0  0  0  0
  2 26  1  0  0  0  0
  3 25  2  0  0  0  0
  4 11  1  0  0  0  0
  4 16  1  0  0  0  0
  4 32  1  0  0  0  0
  5  6  1  0  0  0  0
  5 20  1  0  0  0  0
  5 42  1  0  0  0  0
  6 22  2  0  0  0  0
  7  8  2  0  0  0  0
  7 12  1  0  0  0  0
  7 13  1  0  0  0  0
  8 10  1  0  0  0  0
  8 17  1  0  0  0  0
  9 10  2  0  0  0  0
  9 15  1  0  0  0  0
  9 16  1  0  0  0  0
 10 27  1  0  0  0  0
 11 14  1  0  0  0  0
 11 28  1  0  0  0  0
 11 29  1  0  0  0  0
 12 15  2  0  0  0  0
 12 30  1  0  0  0  0
 13 20  2  0  0  0  0
 13 22  1  0  0  0  0
 14 18  2  0  0  0  0
 14 19  1  0  0  0  0
 15 31  1  0  0  0  0
 17 33  1  0  0  0  0
 17 34  1  0  0  0  0
 17 35  1  0  0  0  0
 18 21  1  0  0  0  0
 18 36  1  0  0  0  0
 19 23  2  0  0  0  0
 19 37  1  0  0  0  0
 20 38  1  0  0  0  0
 21 24  2  0  0  0  0
 21 25  1  0  0  0  0
 22 39  1  0  0  0  0
 23 24  1  0  0  0  0
 23 40  1  0  0  0  0
 24 41  1  0  0  0  0
 26 43  1  0  0  0  0
 26 44  1  0  0  0  0
 26 45  1  0  0  0  0
M  END
> <PUBCHEM_COMPOUND_CID>
118668475

> <PUBCHEM_CONFORMER_RMSD>
0.8

> <PUBCHEM_CONFORMER_DIVERSEORDER>
4
107
50
28
77
75
131
39
65
36
46
96
62
128
82
1
43
122
69
81
92
115
14
25
72
68
21
129
41
134
127
45
136
114
11
27
125
110
109
89
123
32
7
111
3
124
119
99
90
31
10
73
88
51
132
108
59
76
70
54
84
105
71
95
102
8
60
61
112
78
80
33
130
40
56
58
85
15
117
91
38
120
100
98
9
22
53
24
44
37
103
113
86
74
121
6
57
16
101
104
94
35
126
118
93
79
17
106
5
2
63
67
18
42
87
26
23
116
135
133
20
34
52
66
19
29
55
13
64
30
12
97
83
48
49
47

> <PUBCHEM_MMFF94_PARTIAL_CHARGES>
37
1 -0.57
10 -0.15
11 0.44
12 -0.15
13 -0.05
14 -0.14
15 -0.15
16 0.54
17 0.14
18 -0.15
19 -0.15
2 -0.43
20 -0.3
21 0.09
22 0.14
23 -0.15
24 -0.15
25 0.63
26 0.28
27 0.15
3 -0.57
30 0.15
31 0.15
32 0.37
36 0.15
37 0.15
38 0.15
39 0.15
4 -0.73
40 0.15
41 0.15
42 0.27
5 0.3
6 -0.71
7 0.05
8 -0.14
9 0.09

> <PUBCHEM_EFFECTIVE_ROTOR_COUNT>
7

> <PUBCHEM_PHARMACOPHORE_FEATURES>
8
1 1 acceptor
1 3 acceptor
1 4 donor
1 5 donor
1 6 acceptor
5 5 6 13 20 22 rings
6 14 18 19 21 23 24 rings
6 7 8 9 10 12 15 rings

> <PUBCHEM_HEAVY_ATOM_COUNT>
26

> <PUBCHEM_ATOM_DEF_STEREO_COUNT>
0

> <PUBCHEM_ATOM_UDEF_STEREO_COUNT>
0

> <PUBCHEM_BOND_DEF_STEREO_COUNT>
0

> <PUBCHEM_BOND_UDEF_STEREO_COUNT>
0

> <PUBCHEM_ISOTOPIC_ATOM_COUNT>
0

> <PUBCHEM_COMPONENT_COUNT>
1

> <PUBCHEM_CACTVS_TAUTO_COUNT>
20

> <PUBCHEM_CONFORMER_ID>
0712BCBB00000004

> <PUBCHEM_MMFF94_ENERGY>
69.0631

> <PUBCHEM_FEATURE_SELFOVERLAP>
40.597

> <PUBCHEM_SHAPE_FINGERPRINT>
10319926 262 18334588944501994759
105312 117 17274824662402030223
10554248 39 15339124537740159164
11036077 4 17822294613338899699
11089746 13 17774712138648174685
12107183 9 18187366510732312707
12166972 35 13695587741931970326
12403259 118 18341619269342041527
12422481 6 18409446990582323838
12596602 18 18260554471379852465
12616971 3 17676488375651179942
12778500 126 18202280278494638802
12895837 130 17060054827424884201
13103583 49 17894915156855326095
13668630 136 11963389635257155328
13673619 4 15285358426940199623
13782708 43 14707472695362641322
14251764 30 13479141202728498433
14849402 71 17823140197894728476
14931854 50 10663819646715856337
14950920 106 17749674107500751675
15142383 8 17846777400152148906
15183329 4 15791725330495540418
15238133 3 18272655679449761044
15348495 7 18335699511417249520
15352257 5 14273458067530188600
15461852 350 17561075955982947767
16110190 28 18186523224031941437
17780758 139 18040432213719207787
18643901 69 8214139664923357361
18681886 176 10665231458289830350
18927931 339 13840256009962759935
19958102 18 10303816501097695128
20028762 73 17822848801390719674
20281389 69 17846497062577081898
21033648 29 17918007065928785015
21130935 74 18337102458707258514
21150785 3 8862940593947303554
21196832 93 9727048972270773901
21267235 1 17748818611004825458
21307412 95 8862359992338458833
21403212 168 17749669602844845091
21585481 104 13469863442431186705
21585482 111 17130975629550725544
22288116 15 10447926204399561200
22393880 68 10087645870894194087
2303208 19 15430026682640040542
23081809 10 18261393416095271222
23522609 53 17023770955970277508
2838139 119 16486968492853413177
312425 54 18260827107377580866
3178227 256 17240481404129278784
3663271 9 18041846241275104536
3737641 26 16515953757976084610
4107672 100 9943537280869306667
4169191 19 15553880130874770714
445580 182 18408600383439260539
5104073 3 18041278893301545864
58083652 198 17313658364637911125
7226269 152 17489587883024499306
7495541 125 16081358683948718974
8863177 126 16153991360863833794
999808 66 14490475279121850281

> <PUBCHEM_SHAPE_MULTIPOLES>
502.52
20.63
2.18
1.73
4.11
0.21
-0.13
8.19
13.28
-3.42
0.2
-0.03
0.21
-1.44

> <PUBCHEM_SHAPE_SELFOVERLAP>
1092.845

> <PUBCHEM_SHAPE_VOLUME>
276

> <PUBCHEM_COORDINATE_TYPE>
2
5
10

$$$$
90353965
  -OEChem-05102415133D

 43 45  0     1  0  0  0  0  0999 V2000
    5.0594    1.1777   -1.9471 Cl  0  0  0  0  0  0  0  0  0  0  0  0
   -2.3837   -1.8936   -0.4115 O   0  0  0  0  0  0  0  0  0  0  0  0
    1.1076    2.8753   -0.3419 O   0  0  0  0  0  0  0  0  0  0  0  0
    1.7980    0.7960    0.4176 N   0  0  0  0  0  0  0  0  0  0  0  0
   -6.6210   -0.4673    0.4944 N   0  0  0  0  0  0  0  0  0  0  0  0
   -6.5676   -0.9885   -0.7432 N   0  0  0  0  0  0  0  0  0  0  0  0
    3.2036    1.1152    0.5255 C   0  0  2  0  0  0  0  0  0  0  0  0
    4.0660   -0.0971    0.2474 C   0  0  0  0  0  0  0  0  0  0  0  0
    3.5087    1.7505    1.8805 C   0  0  0  0  0  0  0  0  0  0  0  0
   -0.5489    1.2424   -0.0455 C   0  0  0  0  0  0  0  0  0  0  0  0
    0.8283    1.7082   -0.0147 C   0  0  0  0  0  0  0  0  0  0  0  0
   -3.1913    0.3490   -0.1009 C   0  0  0  0  0  0  0  0  0  0  0  0
   -2.1440   -0.5616   -0.2430 C   0  0  0  0  0  0  0  0  0  0  0  0
   -0.8229   -0.1148   -0.2153 C   0  0  0  0  0  0  0  0  0  0  0  0
    4.9287   -0.1464   -0.8475 C   0  0  0  0  0  0  0  0  0  0  0  0
    3.9819   -1.1835    1.1186 C   0  0  0  0  0  0  0  0  0  0  0  0
   -1.5962    2.1529    0.0966 C   0  0  0  0  0  0  0  0  0  0  0  0
   -2.9172    1.7062    0.0686 C   0  0  0  0  0  0  0  0  0  0  0  0
   -4.5605   -0.0903   -0.1248 C   0  0  0  0  0  0  0  0  0  0  0  0
    5.7073   -1.2818   -1.0716 C   0  0  0  0  0  0  0  0  0  0  0  0
    4.7609   -2.3188    0.8947 C   0  0  0  0  0  0  0  0  0  0  0  0
    5.6234   -2.3681   -0.2005 C   0  0  0  0  0  0  0  0  0  0  0  0
   -5.4448    0.0829    0.9119 C   0  0  0  0  0  0  0  0  0  0  0  0
   -5.3065   -0.7553   -1.1163 C   0  0  0  0  0  0  0  0  0  0  0  0
   -2.4692   -2.6892    0.7683 C   0  0  0  0  0  0  0  0  0  0  0  0
    3.3897    1.9056   -0.2049 H   0  0  0  0  0  0  0  0  0  0  0  0
    1.5044   -0.1103    0.7667 H   0  0  0  0  0  0  0  0  0  0  0  0
    4.5728    1.9951    1.9705 H   0  0  0  0  0  0  0  0  0  0  0  0
    2.9386    2.6773    2.0121 H   0  0  0  0  0  0  0  0  0  0  0  0
    3.2415    1.0925    2.7148 H   0  0  0  0  0  0  0  0  0  0  0  0
   -0.0331   -0.8469   -0.3607 H   0  0  0  0  0  0  0  0  0  0  0  0
    3.3139   -1.1711    1.9755 H   0  0  0  0  0  0  0  0  0  0  0  0
   -1.4039    3.2139    0.2338 H   0  0  0  0  0  0  0  0  0  0  0  0
   -3.7183    2.4337    0.1779 H   0  0  0  0  0  0  0  0  0  0  0  0
    6.3843   -1.3362   -1.9204 H   0  0  0  0  0  0  0  0  0  0  0  0
    4.6949   -3.1652    1.5722 H   0  0  0  0  0  0  0  0  0  0  0  0
    6.2294   -3.2524   -0.3749 H   0  0  0  0  0  0  0  0  0  0  0  0
   -5.3519    0.5349    1.8898 H   0  0  0  0  0  0  0  0  0  0  0  0
   -4.9877   -1.0809   -2.0966 H   0  0  0  0  0  0  0  0  0  0  0  0
   -7.4959   -0.5221    1.0008 H   0  0  0  0  0  0  0  0  0  0  0  0
   -2.7124   -3.7136    0.4729 H   0  0  0  0  0  0  0  0  0  0  0  0
   -3.2560   -2.3228    1.4348 H   0  0  0  0  0  0  0  0  0  0  0  0
   -1.5085   -2.6962    1.2929 H   0  0  0  0  0  0  0  0  0  0  0  0
  1 15  1  0  0  0  0
  2 13  1  0  0  0  0
  2 25  1  0  0  0  0
  3 11  2  0  0  0  0
  4  7  1  0  0  0  0
  4 11  1  0  0  0  0
  4 27  1  0  0  0  0
  5  6  1  0  0  0  0
  5 23  1  0  0  0  0
  5 40  1  0  0  0  0
  6 24  2  0  0  0  0
  7  8  1  0  0  0  0
  7  9  1  0  0  0  0
  7 26  1  0  0  0  0
  8 15  1  0  0  0  0
  8 16  2  0  0  0  0
  9 28  1  0  0  0  0
  9 29  1  0  0  0  0
  9 30  1  0  0  0  0
 10 11  1  0  0  0  0
 10 14  2  0  0  0  0
 10 17  1  0  0  0  0
 12 13  2  0  0  0  0
 12 18  1  0  0  0  0
 12 19  1  0  0  0  0
 13 14  1  0  0  0  0
 14 31  1  0  0  0  0
 15 20  2  0  0  0  0
 16 21  1  0  0  0  0
 16 32  1  0  0  0  0
 17 18  2  0  0  0  0
 17 33  1  0  0  0  0
 18 34  1  0  0  0  0
 19 23  2  0  0  0  0
 19 24  1  0  0  0  0
 20 22  1  0  0  0  0
 20 35  1  0  0  0  0
 21 22  2  0  0  0  0
 21 36  1  0  0  0  0
 22 37  1  0  0  0  0
 23 38  1  0  0  0  0
 24 39  1  0  0  0  0
 25 41  1  0  0  0  0
 25 42  1  0  0  0  0
 25 43  1  0  0  0  0
M  END
> <PUBCHEM_COMPOUND_CID>
90353965

> <PUBCHEM_CONFORMER_RMSD>
0.8

> <PUBCHEM_CONFORMER_DIVERSEORDER>
1
46
27
17
43
21
3
20
10
34
47
35
37
39
22
23
28
30
45
31
24
25
29
49
13
15
33
42
48
4
26
40
19
18
9
14
32
6
16
44
2
5
12
8
36
7
38
41
11

> <PUBCHEM_MMFF94_PARTIAL_CHARGES>
35
1 -0.18
10 0.09
11 0.54
12 0.05
13 0.08
14 -0.15
15 0.18
16 -0.15
17 -0.15
18 -0.15
19 -0.05
2 -0.36
20 -0.15
21 -0.15
22 -0.15
23 -0.3
24 0.14
25 0.28
27 0.37
3 -0.57
31 0.15
32 0.15
33 0.15
34 0.15
35 0.15
36 0.15
37 0.15
38 0.15
39 0.15
4 -0.73
40 0.27
5 0.3
6 -0.71
7 0.44
8 -0.14

> <PUBCHEM_EFFECTIVE_ROTOR_COUNT>
6

> <PUBCHEM_PHARMACOPHORE_FEATURES>
8
1 2 acceptor
1 3 acceptor
1 4 donor
1 5 donor
1 6 acceptor
5 5 6 19 23 24 rings
6 10 12 13 14 17 18 rings
6 8 15 16 20 21 22 rings

> <PUBCHEM_HEAVY_ATOM_COUNT>
25

> <PUBCHEM_ATOM_DEF_STEREO_COUNT>
1

> <PUBCHEM_ATOM_UDEF_STEREO_COUNT>
0

> <PUBCHEM_BOND_DEF_STEREO_COUNT>
0

> <PUBCHEM_BOND_UDEF_STEREO_COUNT>
0

> <PUBCHEM_ISOTOPIC_ATOM_COUNT>
0

> <PUBCHEM_COMPONENT_COUNT>
1

> <PUBCHEM_CACTVS_TAUTO_COUNT>
7

> <PUBCHEM_CONFORMER_ID>
0562B12D00000001

> <PUBCHEM_MMFF94_ENERGY>
75.098

> <PUBCHEM_FEATURE_SELFOVERLAP>
40.597

> <PUBCHEM_SHAPE_FINGERPRINT>
10319926 262 16271935878501734833
11991303 11 17608363537539264453
12166972 35 18130790083484989849
12422481 6 17060621113897352135
12516196 113 18202562882673448536
12760667 363 18341613694105245291
13402501 40 18341896255877922310
13533116 47 18201434817649499288
13551218 46 18342453734100660279
13617811 41 18040711493672601797
13685833 64 18343018878787456370
13782708 43 17704066318068000751
13862211 1 18413666916277942135
14211702 104 18198057183002736471
14347332 77 18411135801434479829
14528608 73 13334740128211664976
14617045 38 18409452479276188506
15183329 4 18341895190662521311
15348495 7 14620501355058699847
15537594 2 18408889563698173862
17349148 13 18131354115711900173
17857418 61 18412823573331428458
1813 80 17603579733817656460
18222031 100 18260543428876950940
19319366 153 17894344480377611370
20028762 73 17989200456195881247
20403669 9 18343585118680837606
21150785 3 13767932338663983361
21267235 1 18411705361168099906
21279426 13 18337941304157932877
21682296 61 18412546488180741355
2215653 11 18409443704678855015
22950370 63 18408609132382802280
23522609 53 18125191339948436561
23559900 14 18338233894014159249
23569943 247 18270400473754248075
3004659 81 18187365398874048094
3383291 50 18409443674509420907
3411729 13 17559666425611893976
3472631 163 8718535121642629952
34797466 226 16298394581983399133
351380 3 18413387622601253406
404807 14 16553154518700902551
4073 2 18266739276047174602
46194498 28 17168145667603262540
465052 167 18201721730587231830
5104073 3 17917424290079694048
5372103 7 15792877679460020860
54039377 194 18264210210942809786
543368 44 11241973672832677575
59755656 215 18410289173676352247
6138700 20 18410855426396502271
960060 61 18260552234166049708

> <PUBCHEM_SHAPE_MULTIPOLES>
489.68
16.53
2.7
1.26
6.35
0.25
-0.04
8.15
-2.54
-1.79
0.37
-1.47
-0.17
-0.41

> <PUBCHEM_SHAPE_SELFOVERLAP>
1053.466

> <PUBCHEM_SHAPE_VOLUME>
271.2

> <PUBCHEM_COORDINATE_TYPE>
2
5
10

$$$$
90354012
  -OEChem-05102415133D

 54 57  0     0  0  0  0  0  0999 V2000
   -5.7732   -1.6974    0.5286 O   0  0  0  0  0  0  0  0  0  0  0  0
    2.7473   -1.4315    0.9409 O   0  0  0  0  0  0  0  0  0  0  0  0
   -0.1246    3.4611   -0.6903 O   0  0  0  0  0  0  0  0  0  0  0  0
   -3.5887   -2.2733   -0.0081 N   0  0  0  0  0  0  0  0  0  0  0  0
   -0.7848    2.1663    1.1172 N   0  0  0  0  0  0  0  0  0  0  0  0
    6.9122   -1.1042   -0.8909 N   0  0  0  0  0  0  0  0  0  0  0  0
    7.0091   -1.3219    0.4317 N   0  0  0  0  0  0  0  0  0  0  0  0
   -2.3756   -4.2922    0.0338 C   0  0  0  0  0  0  0  0  0  0  0  0
   -1.6407   -3.2956   -0.8535 C   0  0  0  0  0  0  0  0  0  0  0  0
   -3.7800   -3.7123    0.1006 C   0  0  0  0  0  0  0  0  0  0  0  0
   -2.2199   -1.9585   -0.4128 C   0  0  0  0  0  0  0  0  0  0  0  0
   -4.6344   -1.3846    0.1868 C   0  0  0  0  0  0  0  0  0  0  0  0
   -4.3661    0.0437   -0.0451 C   0  0  0  0  0  0  0  0  0  0  0  0
   -3.3878    0.7001    0.7019 C   0  0  0  0  0  0  0  0  0  0  0  0
   -3.1341    2.0540    0.4824 C   0  0  0  0  0  0  0  0  0  0  0  0
   -5.0909    0.7413   -1.0116 C   0  0  0  0  0  0  0  0  0  0  0  0
   -2.0891    2.7564    1.2815 C   0  0  0  0  0  0  0  0  0  0  0  0
   -3.8588    2.7517   -0.4841 C   0  0  0  0  0  0  0  0  0  0  0  0
   -4.8373    2.0954   -1.2309 C   0  0  0  0  0  0  0  0  0  0  0  0
    1.3959    1.8486    0.0755 C   0  0  0  0  0  0  0  0  0  0  0  0
    0.1011    2.5750    0.1296 C   0  0  0  0  0  0  0  0  0  0  0  0
    3.8270    0.4841   -0.0299 C   0  0  0  0  0  0  0  0  0  0  0  0
    2.6941   -0.1479    0.4831 C   0  0  0  0  0  0  0  0  0  0  0  0
    1.4786    0.5344    0.5357 C   0  0  0  0  0  0  0  0  0  0  0  0
    2.5287    2.4807   -0.4373 C   0  0  0  0  0  0  0  0  0  0  0  0
    3.7443    1.7985   -0.4899 C   0  0  0  0  0  0  0  0  0  0  0  0
    5.0896   -0.2013   -0.0949 C   0  0  0  0  0  0  0  0  0  0  0  0
    5.7809   -0.4367   -1.2583 C   0  0  0  0  0  0  0  0  0  0  0  0
    5.8929   -0.7681    0.9126 C   0  0  0  0  0  0  0  0  0  0  0  0
    2.4843   -2.4660   -0.0042 C   0  0  0  0  0  0  0  0  0  0  0  0
   -1.9241   -4.3015    1.0332 H   0  0  0  0  0  0  0  0  0  0  0  0
   -2.3585   -5.3116   -0.3610 H   0  0  0  0  0  0  0  0  0  0  0  0
   -0.5554   -3.3456   -0.7416 H   0  0  0  0  0  0  0  0  0  0  0  0
   -1.8878   -3.4837   -1.9053 H   0  0  0  0  0  0  0  0  0  0  0  0
   -4.3897   -4.0337   -0.7512 H   0  0  0  0  0  0  0  0  0  0  0  0
   -4.3063   -3.9644    1.0259 H   0  0  0  0  0  0  0  0  0  0  0  0
   -1.6827   -1.5814    0.4633 H   0  0  0  0  0  0  0  0  0  0  0  0
   -2.1973   -1.2095   -1.2091 H   0  0  0  0  0  0  0  0  0  0  0  0
   -2.8415    0.1692    1.4778 H   0  0  0  0  0  0  0  0  0  0  0  0
   -5.8541    0.2406   -1.6016 H   0  0  0  0  0  0  0  0  0  0  0  0
   -2.0313    3.8186    1.0168 H   0  0  0  0  0  0  0  0  0  0  0  0
   -2.3446    2.7043    2.3461 H   0  0  0  0  0  0  0  0  0  0  0  0
   -3.6721    3.8065   -0.6672 H   0  0  0  0  0  0  0  0  0  0  0  0
   -5.4010    2.6384   -1.9838 H   0  0  0  0  0  0  0  0  0  0  0  0
   -0.5173    1.4571    1.7912 H   0  0  0  0  0  0  0  0  0  0  0  0
    0.6096    0.0022    0.9127 H   0  0  0  0  0  0  0  0  0  0  0  0
    2.4849    3.5058   -0.7958 H   0  0  0  0  0  0  0  0  0  0  0  0
    4.6160    2.3122   -0.8888 H   0  0  0  0  0  0  0  0  0  0  0  0
    5.5798   -0.1996   -2.2939 H   0  0  0  0  0  0  0  0  0  0  0  0
    5.7152   -0.8025    1.9784 H   0  0  0  0  0  0  0  0  0  0  0  0
    7.6573   -1.4401   -1.4883 H   0  0  0  0  0  0  0  0  0  0  0  0
    2.3441   -3.4025    0.5426 H   0  0  0  0  0  0  0  0  0  0  0  0
    3.3314   -2.5835   -0.6862 H   0  0  0  0  0  0  0  0  0  0  0  0
    1.5750   -2.2542   -0.5749 H   0  0  0  0  0  0  0  0  0  0  0  0
  1 12  2  0  0  0  0
  2 23  1  0  0  0  0
  2 30  1  0  0  0  0
  3 21  2  0  0  0  0
  4 10  1  0  0  0  0
  4 11  1  0  0  0  0
  4 12  1  0  0  0  0
  5 17  1  0  0  0  0
  5 21  1  0  0  0  0
  5 45  1  0  0  0  0
  6  7  1  0  0  0  0
  6 28  1  0  0  0  0
  6 51  1  0  0  0  0
  7 29  2  0  0  0  0
  8  9  1  0  0  0  0
  8 10  1  0  0  0  0
  8 31  1  0  0  0  0
  8 32  1  0  0  0  0
  9 11  1  0  0  0  0
  9 33  1  0  0  0  0
  9 34  1  0  0  0  0
 10 35  1  0  0  0  0
 10 36  1  0  0  0  0
 11 37  1  0  0  0  0
 11 38  1  0  0  0  0
 12 13  1  0  0  0  0
 13 14  1  0  0  0  0
 13 16  2  0  0  0  0
 14 15  2  0  0  0  0
 14 39  1  0  0  0  0
 15 17  1  0  0  0  0
 15 18  1  0  0  0  0
 16 19  1  0  0  0  0
 16 40  1  0  0  0  0
 17 41  1  0  0  0  0
 17 42  1  0  0  0  0
 18 19  2  0  0  0  0
 18 43  1  0  0  0  0
 19 44  1  0  0  0  0
 20 21  1  0  0  0  0
 20 24  2  0  0  0  0
 20 25  1  0  0  0  0
 22 23  2  0  0  0  0
 22 26  1  0  0  0  0
 22 27  1  0  0  0  0
 23 24  1  0  0  0  0
 24 46  1  0  0  0  0
 25 26  2  0  0  0  0
 25 47  1  0  0  0  0
 26 48  1  0  0  0  0
 27 28  2  0  0  0  0
 27 29  1  0  0  0  0
 28 49  1  0  0  0  0
 29 50  1  0  0  0  0
 30 52  1  0  0  0  0
 30 53  1  0  0  0  0
 30 54  1  0  0  0  0
M  END
> <PUBCHEM_COMPOUND_CID>
90354012

> <PUBCHEM_CONFORMER_RMSD>
1

> <PUBCHEM_CONFORMER_DIVERSEORDER>
3
36
100
63
75
54
1
64
29
27
47
13
22
51
104
115
57
9
8
91
94
11
15
103
109
69
39
61
46
79
90
99
49
2
86
68
110
116
33
92
20
107
74
88
89
78
26
6
32
105
24
108
84
83
44
55
30
40
56
37
10
66
70
96
53
72
77
81
58
118
98
97
93
59
113
82
65
14
87
41
25
67
95
28
112
17
71
34
35
12
48
114
4
102
106
50
19
45
62
38
76
42
85
60
117
111
16
52
80
73
5
43
7
101
31
18
23
21

> <PUBCHEM_MMFF94_PARTIAL_CHARGES>
39
1 -0.57
10 0.3
11 0.3
12 0.54
13 0.09
14 -0.15
15 -0.14
16 -0.15
17 0.44
18 -0.15
19 -0.15
2 -0.36
20 0.09
21 0.54
22 0.05
23 0.08
24 -0.15
25 -0.15
26 -0.15
27 -0.05
28 -0.3
29 0.14
3 -0.57
30 0.28
39 0.15
4 -0.66
40 0.15
43 0.15
44 0.15
45 0.37
46 0.15
47 0.15
48 0.15
49 0.15
5 -0.73
50 0.15
51 0.27
6 0.3
7 -0.71

> <PUBCHEM_EFFECTIVE_ROTOR_COUNT>
9

> <PUBCHEM_PHARMACOPHORE_FEATURES>
10
1 1 acceptor
1 2 acceptor
1 3 acceptor
1 5 donor
1 6 donor
1 7 acceptor
5 4 8 9 10 11 rings
5 6 7 27 28 29 rings
6 13 14 15 16 18 19 rings
6 20 22 23 24 25 26 rings

> <PUBCHEM_HEAVY_ATOM_COUNT>
30

> <PUBCHEM_ATOM_DEF_STEREO_COUNT>
0

> <PUBCHEM_ATOM_UDEF_STEREO_COUNT>
0

> <PUBCHEM_BOND_DEF_STEREO_COUNT>
0

> <PUBCHEM_BOND_UDEF_STEREO_COUNT>
0

> <PUBCHEM_ISOTOPIC_ATOM_COUNT>
0

> <PUBCHEM_COMPONENT_COUNT>
1

> <PUBCHEM_CACTVS_TAUTO_COUNT>
7

> <PUBCHEM_CONFORMER_ID>
0562B15C00000003

> <PUBCHEM_MMFF94_ENERGY>
86.8009

> <PUBCHEM_FEATURE_SELFOVERLAP>
50.748

> <PUBCHEM_SHAPE_FINGERPRINT>
10391435 84 18340477942108077744
107951 10 17531525387713605017
11014199 57 18049159166015480679
11135609 99 18412543224369463684
11315621 136 18335142024615112972
11513181 2 17844806980183005007
117089 54 17755596184840636459
11963148 33 18262514781008084394
12645989 146 18128536170658613119
13165053 182 16665177514199466988
14117953 113 17832975062472828253
14251757 5 18410574011269765475
14279260 333 18334009468058062362
14289585 56 17168137919324076444
14866123 147 18342747351672506267
14931854 50 18336814330635646215
15001296 14 18192146212210981066
15297060 5 18059013865697124987
15320467 1 18410573989626474603
15347590 135 11815605424499345549
15439362 3 17544473060507554973
15728490 51 18412261771020764864
16719943 64 18411416176915412735
17492 89 18121499317525024899
17627616 140 18192430762448397467
19958102 18 18268993081679392726
20028762 73 18341050731958206998
20511986 3 17895462640631527816
20775438 99 16761925775616019215
21133410 38 15243720316882273171
22393880 68 18259696800713148201
23428019 142 17676489483769067378
23559900 14 18341603858536069361
238918 7 17703796898885357014
3004659 81 18260543428919116633
3383291 50 18343016710093404435
338550 245 18334860545422121300
354706 132 17167868543122895471
373842 8 18269272353338601374
4394409 98 18189613852666000813
439807 62 18260834825844741921
44062 13 18409729607777325735
445580 160 18342743992449145366
44880168 125 17489041451331033526
463206 1 18337961219778528553
5085150 59 18270387296545793263
6437827 68 18411418397254898527
70634741 139 18341054107486276352

> <PUBCHEM_SHAPE_MULTIPOLES>
579.85
15.41
4.94
1.03
16.35
2.53
0.05
5.46
1.93
-5.84
0.22
0.03
-0.28
0.1

> <PUBCHEM_SHAPE_SELFOVERLAP>
1262.308

> <PUBCHEM_SHAPE_VOLUME>
317.4

> <PUBCHEM_COORDINATE_TYPE>
2
5
10

$$$$
118663022
  -OEChem-05102415133D

 43 46  0     0  0  0  0  0  0999 V2000
   -3.3440    2.0776   -0.4563 O   0  0  0  0  0  0  0  0  0  0  0  0
    1.1630    0.9270    1.5745 O   0  0  0  0  0  0  0  0  0  0  0  0
    1.3737   -1.3256    1.0633 N   0  0  0  0  0  0  0  0  0  0  0  0
    5.7346    1.5698   -0.7026 N   0  0  0  0  0  0  0  0  0  0  0  0
    5.3370    2.1539    0.4401 N   0  0  0  0  0  0  0  0  0  0  0  0
   -7.0100   -0.6154   -0.1057 N   0  0  0  0  0  0  0  0  0  0  0  0
   -6.8320   -0.2478   -1.3860 N   0  0  0  0  0  0  0  0  0  0  0  0
    3.6645   -1.1159    0.2618 C   0  0  0  0  0  0  0  0  0  0  0  0
    4.3750    0.0935    0.1814 C   0  0  0  0  0  0  0  0  0  0  0  0
    2.7657   -1.4494    1.4086 C   0  0  0  0  0  0  0  0  0  0  0  0
    5.1934    0.3309   -0.9173 C   0  0  0  0  0  0  0  0  0  0  0  0
    3.8075   -2.0459   -0.7756 C   0  0  0  0  0  0  0  0  0  0  0  0
   -0.7598   -0.1727    0.8056 C   0  0  0  0  0  0  0  0  0  0  0  0
   -3.4590   -0.2569    0.1051 C   0  0  0  0  0  0  0  0  0  0  0  0
    5.3500   -0.5827   -1.9619 C   0  0  0  0  0  0  0  0  0  0  0  0
    0.6780   -0.1289    1.1769 C   0  0  0  0  0  0  0  0  0  0  0  0
    4.5099    1.2528    0.9751 C   0  0  0  0  0  0  0  0  0  0  0  0
   -2.7460    0.9369   -0.0076 C   0  0  0  0  0  0  0  0  0  0  0  0
    4.6364   -1.7820   -1.8675 C   0  0  0  0  0  0  0  0  0  0  0  0
   -1.3964    0.9788    0.3427 C   0  0  0  0  0  0  0  0  0  0  0  0
   -1.4728   -1.3665    0.9183 C   0  0  0  0  0  0  0  0  0  0  0  0
   -2.8224   -1.4084    0.5683 C   0  0  0  0  0  0  0  0  0  0  0  0
   -4.8505   -0.3227   -0.2522 C   0  0  0  0  0  0  0  0  0  0  0  0
   -5.8544   -0.6755    0.6163 C   0  0  0  0  0  0  0  0  0  0  0  0
   -5.5108   -0.0705   -1.4696 C   0  0  0  0  0  0  0  0  0  0  0  0
   -2.5304    3.2456   -0.5357 C   0  0  0  0  0  0  0  0  0  0  0  0
    2.9360   -2.4824    1.7332 H   0  0  0  0  0  0  0  0  0  0  0  0
    2.9766   -0.8081    2.2716 H   0  0  0  0  0  0  0  0  0  0  0  0
    3.2705   -2.9914   -0.7415 H   0  0  0  0  0  0  0  0  0  0  0  0
    0.9277   -2.1451    0.6649 H   0  0  0  0  0  0  0  0  0  0  0  0
    5.9941   -0.3760   -2.8092 H   0  0  0  0  0  0  0  0  0  0  0  0
    4.0418    1.4801    1.9223 H   0  0  0  0  0  0  0  0  0  0  0  0
    4.7296   -2.5211   -2.6593 H   0  0  0  0  0  0  0  0  0  0  0  0
   -0.7915    1.8758    0.2688 H   0  0  0  0  0  0  0  0  0  0  0  0
   -1.0229   -2.2775    1.3016 H   0  0  0  0  0  0  0  0  0  0  0  0
    6.3817    2.0732   -1.2965 H   0  0  0  0  0  0  0  0  0  0  0  0
   -3.3598   -2.3490    0.6656 H   0  0  0  0  0  0  0  0  0  0  0  0
   -5.8583   -0.9572    1.6603 H   0  0  0  0  0  0  0  0  0  0  0  0
   -5.0880    0.2347   -2.4166 H   0  0  0  0  0  0  0  0  0  0  0  0
   -7.9515   -0.8111    0.2109 H   0  0  0  0  0  0  0  0  0  0  0  0
   -1.7180    3.1255   -1.2606 H   0  0  0  0  0  0  0  0  0  0  0  0
   -2.1718    3.5583    0.4510 H   0  0  0  0  0  0  0  0  0  0  0  0
   -3.1674    4.0545   -0.9091 H   0  0  0  0  0  0  0  0  0  0  0  0
  1 18  1  0  0  0  0
  1 26  1  0  0  0  0
  2 16  2  0  0  0  0
  3 10  1  0  0  0  0
  3 16  1  0  0  0  0
  3 30  1  0  0  0  0
  4  5  1  0  0  0  0
  4 11  1  0  0  0  0
  4 36  1  0  0  0  0
  5 17  2  0  0  0  0
  6  7  1  0  0  0  0
  6 24  1  0  0  0  0
  6 40  1  0  0  0  0
  7 25  2  0  0  0  0
  8  9  2  0  0  0  0
  8 10  1  0  0  0  0
  8 12  1  0  0  0  0
  9 11  1  0  0  0  0
  9 17  1  0  0  0  0
 10 27  1  0  0  0  0
 10 28  1  0  0  0  0
 11 15  2  0  0  0  0
 12 19  2  0  0  0  0
 12 29  1  0  0  0  0
 13 16  1  0  0  0  0
 13 20  2  0  0  0  0
 13 21  1  0  0  0  0
 14 18  2  0  0  0  0
 14 22  1  0  0  0  0
 14 23  1  0  0  0  0
 15 19  1  0  0  0  0
 15 31  1  0  0  0  0
 17 32  1  0  0  0  0
 18 20  1  0  0  0  0
 19 33  1  0  0  0  0
 20 34  1  0  0  0  0
 21 22  2  0  0  0  0
 21 35  1  0  0  0  0
 22 37  1  0  0  0  0
 23 24  2  0  0  0  0
 23 25  1  0  0  0  0
 24 38  1  0  0  0  0
 25 39  1  0  0  0  0
 26 41  1  0  0  0  0
 26 42  1  0  0  0  0
 26 43  1  0  0  0  0
M  END
> <PUBCHEM_COMPOUND_CID>
118663022

> <PUBCHEM_CONFORMER_RMSD>
0.8

> <PUBCHEM_CONFORMER_DIVERSEORDER>
14
66
33
3
65
46
83
79
43
57
35
58
49
45
84
67
54
47
18
31
59
62
73
68
53
9
15
77
44
50
55
63
80
6
27
51
76
81
69
17
30
40
12
7
52
28
23
32
37
11
26
78
72
48
24
38
20
64
21
36
82
41
16
60
61
19
74
13
56
22
1
71
39
70
8
25
5
4
29
75
10
34
2
42

> <PUBCHEM_MMFF94_PARTIAL_CHARGES>
37
1 -0.36
10 0.44
11 -0.15
12 -0.15
13 0.09
14 0.05
15 -0.15
16 0.54
17 0.14
18 0.08
19 -0.15
2 -0.57
20 -0.15
21 -0.15
22 -0.15
23 -0.05
24 -0.3
25 0.14
26 0.28
29 0.15
3 -0.73
30 0.37
31 0.15
32 0.15
33 0.15
34 0.15
35 0.15
36 0.27
37 0.15
38 0.15
39 0.15
4 0.3
40 0.27
5 -0.71
6 0.3
7 -0.71
8 -0.14

> <PUBCHEM_EFFECTIVE_ROTOR_COUNT>
6

> <PUBCHEM_PHARMACOPHORE_FEATURES>
11
1 1 acceptor
1 2 acceptor
1 3 donor
1 4 donor
1 5 acceptor
1 6 donor
1 7 acceptor
5 4 5 9 11 17 rings
5 6 7 23 24 25 rings
6 13 14 18 20 21 22 rings
6 8 9 11 12 15 19 rings

> <PUBCHEM_HEAVY_ATOM_COUNT>
26

> <PUBCHEM_ATOM_DEF_STEREO_COUNT>
0

> <PUBCHEM_ATOM_UDEF_STEREO_COUNT>
0

> <PUBCHEM_BOND_DEF_STEREO_COUNT>
0

> <PUBCHEM_BOND_UDEF_STEREO_COUNT>
0

> <PUBCHEM_ISOTOPIC_ATOM_COUNT>
0

> <PUBCHEM_COMPONENT_COUNT>
1

> <PUBCHEM_CACTVS_TAUTO_COUNT>
54

> <PUBCHEM_CONFORMER_ID>
0712A76E0000000E

> <PUBCHEM_MMFF94_ENERGY>
66.2499

> <PUBCHEM_FEATURE_SELFOVERLAP>
55.914

> <PUBCHEM_SHAPE_FINGERPRINT>
10670039 82 17895202043722717892
10692045 39 8214156178307991909
10928967 22 15267051498498506508
12616971 3 13182726027127049419
13150687 139 17988371477122692492
13533116 47 16917068875701232802
13617811 41 18040713693059776269
13782708 43 14189280587622164381
14341114 176 9871752399230390002
14347332 77 17988078890079110633
14347424 109 9367348120094793270
14528608 73 18260830375741833674
14840074 17 18202843266812771751
15183329 4 17917713504666280739
15348495 7 8574418825159139831
15475509 35 11743575236984953268
15575132 122 18335135354905033373
15799311 1 16558760034984220879
16994733 274 15792284888100576909
17844677 252 18341054016853691120
1813 80 14979956969445159810
20645477 70 17703796895027887886
21130935 74 10953459626659943033
21641784 216 18114181887290992637
22122407 14 14345805932516160100
221357 26 18342738511659457848
22393880 68 18337676296169815172
22950370 63 17060341807673481419
23352939 185 18342739628651869569
23516275 137 16414101679569743095
23522609 53 16772698626734447713
23559900 14 18338230595790512497
24771750 20 17755875464709101021
3004659 81 17846783975489142278
3472631 163 17386012831648005270
34797466 226 18342460360981951596
351380 3 14908183040674902918
3680242 22 12179844978726936751
44317340 157 18342739572426767508
46194498 28 18343864441947680028
465052 167 14405187270320215782
474 4 16443355264810744498
497634 4 17988932141383658249
5281201 14 18272094855705370960
53794403 172 17897455106014922700
54039377 194 16056333722149239254
6327066 14 17982450705734240448
7237137 82 18187920639356119621
8509985 295 12107789618557227614
960060 61 17632580457196915002

> <PUBCHEM_SHAPE_MULTIPOLES>
498.42
17.48
2.26
1.53
8.51
1.43
0.37
-0.39
7.43
-1.07
0.22
-1.17
-0.39
1.29

> <PUBCHEM_SHAPE_SELFOVERLAP>
1109.194

> <PUBCHEM_SHAPE_VOLUME>
267.9

> <PUBCHEM_COORDINATE_TYPE>
2
5
10

$$$$
85469695
  -OEChem-05102415133D

 43 45  0     1  0  0  0  0  0999 V2000
   -2.8461   -1.7434    1.0090 O   0  0  0  0  0  0  0  0  0  0  0  0
    1.7072    0.0524   -2.3044 O   0  0  0  0  0  0  0  0  0  0  0  0
    1.9767   -1.0711   -0.2940 N   0  0  0  0  0  0  0  0  0  0  0  0
   -6.1132    1.4171    0.6249 N   0  0  0  0  0  0  0  0  0  0  0  0
   -6.5441    0.2488    0.1194 N   0  0  0  0  0  0  0  0  0  0  0  0
    3.3898   -1.3373   -0.4386 C   0  0  1  0  0  0  0  0  0  0  0  0
    4.2270   -0.2019    0.1099 C   0  0  0  0  0  0  0  0  0  0  0  0
    3.7389   -2.6822    0.1954 C   0  0  0  0  0  0  0  0  0  0  0  0
   -0.1899   -0.1746   -0.9451 C   0  0  0  0  0  0  0  0  0  0  0  0
    1.2169   -0.3848   -1.2483 C   0  0  0  0  0  0  0  0  0  0  0  0
   -2.8876    0.2311   -0.3613 C   0  0  0  0  0  0  0  0  0  0  0  0
   -2.2119   -0.8595    0.1862 C   0  0  0  0  0  0  0  0  0  0  0  0
   -0.8631   -1.0624   -0.1057 C   0  0  0  0  0  0  0  0  0  0  0  0
   -0.8657    0.9159   -1.4927 C   0  0  0  0  0  0  0  0  0  0  0  0
    3.7877    0.5134    1.2240 C   0  0  0  0  0  0  0  0  0  0  0  0
    5.4376    0.1293   -0.4987 C   0  0  0  0  0  0  0  0  0  0  0  0
   -2.2146    1.1186   -1.2011 C   0  0  0  0  0  0  0  0  0  0  0  0
   -4.2777    0.4599   -0.0721 C   0  0  0  0  0  0  0  0  0  0  0  0
    4.5591    1.5598    1.7297 C   0  0  0  0  0  0  0  0  0  0  0  0
    6.2091    1.1758    0.0070 C   0  0  0  0  0  0  0  0  0  0  0  0
    5.7699    1.8908    1.1213 C   0  0  0  0  0  0  0  0  0  0  0  0
   -4.7635    1.5924    0.5347 C   0  0  0  0  0  0  0  0  0  0  0  0
   -5.4184   -0.3316   -0.3048 C   0  0  0  0  0  0  0  0  0  0  0  0
   -2.8239   -1.4567    2.4053 C   0  0  0  0  0  0  0  0  0  0  0  0
    3.5875   -1.4145   -1.5158 H   0  0  0  0  0  0  0  0  0  0  0  0
    1.5560   -1.3211    0.5953 H   0  0  0  0  0  0  0  0  0  0  0  0
    4.7965   -2.9262    0.0479 H   0  0  0  0  0  0  0  0  0  0  0  0
    3.1392   -3.4868   -0.2445 H   0  0  0  0  0  0  0  0  0  0  0  0
    3.5449   -2.6779    1.2744 H   0  0  0  0  0  0  0  0  0  0  0  0
   -0.3761   -1.9391    0.3127 H   0  0  0  0  0  0  0  0  0  0  0  0
   -0.3584    1.6213   -2.1459 H   0  0  0  0  0  0  0  0  0  0  0  0
    2.8572    0.2697    1.7290 H   0  0  0  0  0  0  0  0  0  0  0  0
    5.7919   -0.4213   -1.3660 H   0  0  0  0  0  0  0  0  0  0  0  0
   -2.7227    1.9735   -1.6415 H   0  0  0  0  0  0  0  0  0  0  0  0
    4.2191    2.1146    2.5993 H   0  0  0  0  0  0  0  0  0  0  0  0
    7.1520    1.4334   -0.4663 H   0  0  0  0  0  0  0  0  0  0  0  0
    6.3711    2.7049    1.5156 H   0  0  0  0  0  0  0  0  0  0  0  0
   -4.2875    2.4894    0.9062 H   0  0  0  0  0  0  0  0  0  0  0  0
   -5.4807   -1.3074   -0.7660 H   0  0  0  0  0  0  0  0  0  0  0  0
   -6.7973    2.0511    1.0184 H   0  0  0  0  0  0  0  0  0  0  0  0
   -3.4102   -2.2224    2.9208 H   0  0  0  0  0  0  0  0  0  0  0  0
   -3.2680   -0.4786    2.6140 H   0  0  0  0  0  0  0  0  0  0  0  0
   -1.7974   -1.4895    2.7841 H   0  0  0  0  0  0  0  0  0  0  0  0
  1 12  1  0  0  0  0
  1 24  1  0  0  0  0
  2 10  2  0  0  0  0
  3  6  1  0  0  0  0
  3 10  1  0  0  0  0
  3 26  1  0  0  0  0
  4  5  1  0  0  0  0
  4 22  1  0  0  0  0
  4 40  1  0  0  0  0
  5 23  2  0  0  0  0
  6  7  1  0  0  0  0
  6  8  1  0  0  0  0
  6 25  1  0  0  0  0
  7 15  2  0  0  0  0
  7 16  1  0  0  0  0
  8 27  1  0  0  0  0
  8 28  1  0  0  0  0
  8 29  1  0  0  0  0
  9 10  1  0  0  0  0
  9 13  2  0  0  0  0
  9 14  1  0  0  0  0
 11 12  2  0  0  0  0
 11 17  1  0  0  0  0
 11 18  1  0  0  0  0
 12 13  1  0  0  0  0
 13 30  1  0  0  0  0
 14 17  2  0  0  0  0
 14 31  1  0  0  0  0
 15 19  1  0  0  0  0
 15 32  1  0  0  0  0
 16 20  2  0  0  0  0
 16 33  1  0  0  0  0
 17 34  1  0  0  0  0
 18 22  2  0  0  0  0
 18 23  1  0  0  0  0
 19 21  2  0  0  0  0
 19 35  1  0  0  0  0
 20 21  1  0  0  0  0
 20 36  1  0  0  0  0
 21 37  1  0  0  0  0
 22 38  1  0  0  0  0
 23 39  1  0  0  0  0
 24 41  1  0  0  0  0
 24 42  1  0  0  0  0
 24 43  1  0  0  0  0
M  END
> <PUBCHEM_COMPOUND_CID>
85469695

> <PUBCHEM_CONFORMER_RMSD>
0.8

> <PUBCHEM_CONFORMER_DIVERSEORDER>
1
21
18
13
7
19
25
12
2
8
14
15
23
3
17
20
22
24
10
5
16
9
6
11
4

> <PUBCHEM_MMFF94_PARTIAL_CHARGES>
35
1 -0.36
10 0.54
11 0.05
12 0.08
13 -0.15
14 -0.15
15 -0.15
16 -0.15
17 -0.15
18 -0.05
19 -0.15
2 -0.57
20 -0.15
21 -0.15
22 -0.3
23 0.14
24 0.28
26 0.37
3 -0.73
30 0.15
31 0.15
32 0.15
33 0.15
34 0.15
35 0.15
36 0.15
37 0.15
38 0.15
39 0.15
4 0.3
40 0.27
5 -0.71
6 0.44
7 -0.14
9 0.09

> <PUBCHEM_EFFECTIVE_ROTOR_COUNT>
6

> <PUBCHEM_PHARMACOPHORE_FEATURES>
8
1 1 acceptor
1 2 acceptor
1 3 donor
1 4 donor
1 5 acceptor
5 4 5 18 22 23 rings
6 7 15 16 19 20 21 rings
6 9 11 12 13 14 17 rings

> <PUBCHEM_HEAVY_ATOM_COUNT>
24

> <PUBCHEM_ATOM_DEF_STEREO_COUNT>
1

> <PUBCHEM_ATOM_UDEF_STEREO_COUNT>
0

> <PUBCHEM_BOND_DEF_STEREO_COUNT>
0

> <PUBCHEM_BOND_UDEF_STEREO_COUNT>
0

> <PUBCHEM_ISOTOPIC_ATOM_COUNT>
0

> <PUBCHEM_COMPONENT_COUNT>
1

> <PUBCHEM_CACTVS_TAUTO_COUNT>
9

> <PUBCHEM_CONFORMER_ID>
051829FF00000001

> <PUBCHEM_MMFF94_ENERGY>
71.9017

> <PUBCHEM_FEATURE_SELFOVERLAP>
40.597

> <PUBCHEM_SHAPE_FINGERPRINT>
10 15 17168147853425156356
10165383 225 18408887352702237132
10591671 39 15410895184553683053
10670039 82 14836135346710536202
11045977 3 18412266159801861378
11828532 37 12391212959683820917
11991303 11 15626213654649391213
12236239 1 16343701045148199900
12403259 415 18262513676356600292
12553582 1 16370725911541154350
12596602 18 18341895160850724379
12616971 3 17488728000749558382
12633257 1 17822566205110493760
12788726 201 16443353022521584692
13140716 1 17531824561670072495
13533116 47 18338517417737892274
13583140 156 18130228262733420594
13668630 136 11818989665396743144
13685833 64 12251900391153333108
14251740 57 14924495335566749176
14251751 18 11819278857870457193
14341114 176 18040149600829488348
14528608 73 17131826590592294836
15183329 4 11455895762817711284
15537594 2 15140681388876276194
15575132 122 15554455080660991641
15961568 22 17846502521291351873
17857418 61 14201400482171754857
17980427 23 18114462378392645119
1813 80 15357702950684993782
19784866 240 12829482615357682140
21033648 29 18341325699869157816
21130935 74 18336270042458070355
21424621 283 18268155271489637105
21623969 137 13551187779943418368
21637258 2 13551479189495780921
21641784 216 14476968856964680571
21781051 124 14117511103773990189
21859007 373 16371270157259753181
22122407 14 17846787312151042552
23366157 5 16010741552573494909
23503953 91 17748835132562416983
23559900 14 18114192891150101182
2916195 48 18341611486903700121
29717793 49 8790881891370067406
3383291 50 17458637761023186443
339767 52 16153705435757756889
34797466 226 17203615874023530957
4058900 60 16128108758388203951
474 4 16630529531411420526
5104073 3 17969776372109985376
5281201 14 9871748005574103658
5718773 13 10665766895068551032
59755656 215 11312064244156937645
6437827 68 11674887688229229641
7226269 152 18040432179560228589
9841814 1 16153436043088318940

> <PUBCHEM_SHAPE_MULTIPOLES>
467.23
16.04
1.94
1.64
1.08
0.47
0.25
-6.83
4.35
-1.44
0.66
-0.14
0
1.5

> <PUBCHEM_SHAPE_SELFOVERLAP>
1013.798

> <PUBCHEM_SHAPE_VOLUME>
256.5

> <PUBCHEM_COORDINATE_TYPE>
2
5
10

$$$$
118662969
  -OEChem-05102415133D

 43 45  0     1  0  0  0  0  0999 V2000
   -4.0109   -2.7273   -1.1912 Cl  0  0  0  0  0  0  0  0  0  0  0  0
   -4.4534    2.1632    0.1864 F   0  0  0  0  0  0  0  0  0  0  0  0
    3.3605    3.0419   -0.7958 O   0  0  0  0  0  0  0  0  0  0  0  0
   -1.4708    1.9498   -0.1981 O   0  0  0  0  0  0  0  0  0  0  0  0
   -1.9786   -0.0465   -1.2628 N   0  0  0  0  0  0  0  0  0  0  0  0
    6.2573   -1.6479   -0.2685 N   0  0  0  0  0  0  0  0  0  0  0  0
    6.2013   -1.6596    1.0743 N   0  0  0  0  0  0  0  0  0  0  0  0
    2.6019    0.8802   -0.1008 C   0  0  0  0  0  0  0  0  0  0  0  0
    2.8847   -0.4840   -0.0308 C   0  0  0  0  0  0  0  0  0  0  0  0
    3.6802    1.9094    0.0183 C   0  0  2  0  0  0  0  0  0  0  0  0
    1.2883    1.3114   -0.2867 C   0  0  0  0  0  0  0  0  0  0  0  0
    0.2577    0.3786   -0.4024 C   0  0  0  0  0  0  0  0  0  0  0  0
    1.8540   -1.4169   -0.1468 C   0  0  0  0  0  0  0  0  0  0  0  0
    4.2306   -0.9549    0.1594 C   0  0  0  0  0  0  0  0  0  0  0  0
    0.5406   -0.9857   -0.3324 C   0  0  0  0  0  0  0  0  0  0  0  0
    3.8897    2.3761    1.4604 C   0  0  0  0  0  0  0  0  0  0  0  0
   -1.1120    0.8275   -0.5962 C   0  0  0  0  0  0  0  0  0  0  0  0
   -3.3602    0.2641   -1.5518 C   0  0  0  0  0  0  0  0  0  0  0  0
    5.1025   -1.2337   -0.8647 C   0  0  0  0  0  0  0  0  0  0  0  0
   -4.2714   -0.1252   -0.4237 C   0  0  0  0  0  0  0  0  0  0  0  0
    4.9609   -1.2353    1.3297 C   0  0  0  0  0  0  0  0  0  0  0  0
   -4.6148   -1.4569   -0.1909 C   0  0  0  0  0  0  0  0  0  0  0  0
   -4.7771    0.8800    0.4005 C   0  0  0  0  0  0  0  0  0  0  0  0
   -5.4642   -1.7835    0.8664 C   0  0  0  0  0  0  0  0  0  0  0  0
   -5.6265    0.5534    1.4578 C   0  0  0  0  0  0  0  0  0  0  0  0
   -5.9702   -0.7782    1.6906 C   0  0  0  0  0  0  0  0  0  0  0  0
    4.6284    1.5369   -0.3803 H   0  0  0  0  0  0  0  0  0  0  0  0
    1.0567    2.3728   -0.3321 H   0  0  0  0  0  0  0  0  0  0  0  0
    2.0552   -2.4841   -0.0875 H   0  0  0  0  0  0  0  0  0  0  0  0
   -0.2343   -1.7448   -0.3850 H   0  0  0  0  0  0  0  0  0  0  0  0
    2.9877    2.8620    1.8501 H   0  0  0  0  0  0  0  0  0  0  0  0
    4.1471    1.5481    2.1269 H   0  0  0  0  0  0  0  0  0  0  0  0
    4.6909    3.1217    1.5070 H   0  0  0  0  0  0  0  0  0  0  0  0
   -3.6399   -0.2491   -2.4785 H   0  0  0  0  0  0  0  0  0  0  0  0
   -3.4381    1.3357   -1.7698 H   0  0  0  0  0  0  0  0  0  0  0  0
   -1.6354   -0.9320   -1.6190 H   0  0  0  0  0  0  0  0  0  0  0  0
    5.0132   -1.1772   -1.9408 H   0  0  0  0  0  0  0  0  0  0  0  0
    4.6439   -1.1498    2.3596 H   0  0  0  0  0  0  0  0  0  0  0  0
    4.0842    3.6848   -0.7023 H   0  0  0  0  0  0  0  0  0  0  0  0
    7.1188   -1.9361   -0.7154 H   0  0  0  0  0  0  0  0  0  0  0  0
   -5.7418   -2.8163    1.0612 H   0  0  0  0  0  0  0  0  0  0  0  0
   -6.0201    1.3362    2.0995 H   0  0  0  0  0  0  0  0  0  0  0  0
   -6.6317   -1.0322    2.5137 H   0  0  0  0  0  0  0  0  0  0  0  0
  1 22  1  0  0  0  0
  2 23  1  0  0  0  0
  3 10  1  0  0  0  0
  3 39  1  0  0  0  0
  4 17  2  0  0  0  0
  5 17  1  0  0  0  0
  5 18  1  0  0  0  0
  5 36  1  0  0  0  0
  6  7  1  0  0  0  0
  6 19  1  0  0  0  0
  6 40  1  0  0  0  0
  7 21  2  0  0  0  0
  8  9  2  0  0  0  0
  8 10  1  0  0  0  0
  8 11  1  0  0  0  0
  9 13  1  0  0  0  0
  9 14  1  0  0  0  0
 10 16  1  0  0  0  0
 10 27  1  0  0  0  0
 11 12  2  0  0  0  0
 11 28  1  0  0  0  0
 12 15  1  0  0  0  0
 12 17  1  0  0  0  0
 13 15  2  0  0  0  0
 13 29  1  0  0  0  0
 14 19  2  0  0  0  0
 14 21  1  0  0  0  0
 15 30  1  0  0  0  0
 16 31  1  0  0  0  0
 16 32  1  0  0  0  0
 16 33  1  0  0  0  0
 18 20  1  0  0  0  0
 18 34  1  0  0  0  0
 18 35  1  0  0  0  0
 19 37  1  0  0  0  0
 20 22  1  0  0  0  0
 20 23  2  0  0  0  0
 21 38  1  0  0  0  0
 22 24  2  0  0  0  0
 23 25  1  0  0  0  0
 24 26  1  0  0  0  0
 24 41  1  0  0  0  0
 25 26  2  0  0  0  0
 25 42  1  0  0  0  0
 26 43  1  0  0  0  0
M  END
> <PUBCHEM_COMPOUND_CID>
118662969

> <PUBCHEM_CONFORMER_RMSD>
0.8

> <PUBCHEM_CONFORMER_DIVERSEORDER>
2
121
89
53
58
120
96
32
119
29
68
87
19
27
88
108
117
82
113
51
115
81
14
100
33
72
56
64
40
85
24
77
66
31
83
123
73
92
54
38
103
36
97
59
4
45
102
110
111
26
60
75
35
106
122
20
55
76
49
114
109
48
74
71
21
23
98
107
69
93
94
61
22
118
13
99
91
9
90
42
112
11
62
50
63
43
44
15
86
47
17
41
105
65
12
30
95
67
104
3
16
101
79
84
10
57
116
25
52
70
37
28
5
6
18
34
46
80
1
78
7
8
39

> <PUBCHEM_MMFF94_PARTIAL_CHARGES>
36
1 -0.18
10 0.42
11 -0.15
12 0.09
13 -0.15
14 -0.05
15 -0.15
17 0.54
18 0.44
19 -0.3
2 -0.19
20 -0.14
21 0.14
22 0.18
23 0.19
24 -0.15
25 -0.15
26 -0.15
28 0.15
29 0.15
3 -0.68
30 0.15
36 0.37
37 0.15
38 0.15
39 0.4
4 -0.57
40 0.27
41 0.15
42 0.15
43 0.15
5 -0.73
6 0.3
7 -0.71
8 -0.14
9 0.05

> <PUBCHEM_EFFECTIVE_ROTOR_COUNT>
6

> <PUBCHEM_PHARMACOPHORE_FEATURES>
9
1 3 acceptor
1 3 donor
1 4 acceptor
1 5 donor
1 6 donor
1 7 acceptor
5 6 7 14 19 21 rings
6 20 22 23 24 25 26 rings
6 8 9 11 12 13 15 rings

> <PUBCHEM_HEAVY_ATOM_COUNT>
26

> <PUBCHEM_ATOM_DEF_STEREO_COUNT>
0

> <PUBCHEM_ATOM_UDEF_STEREO_COUNT>
1

> <PUBCHEM_BOND_DEF_STEREO_COUNT>
0

> <PUBCHEM_BOND_UDEF_STEREO_COUNT>
0

> <PUBCHEM_ISOTOPIC_ATOM_COUNT>
0

> <PUBCHEM_COMPONENT_COUNT>
1

> <PUBCHEM_CACTVS_TAUTO_COUNT>
9

> <PUBCHEM_CONFORMER_ID>
0712A73900000002

> <PUBCHEM_MMFF94_ENERGY>
63.1863

> <PUBCHEM_FEATURE_SELFOVERLAP>
45.672

> <PUBCHEM_SHAPE_FINGERPRINT>
11405975 8 18342173383983375086
11545043 162 17749382637871522789
12107183 9 18268999700355994561
12166972 35 17240492394454763012
12422481 6 17989205928047013086
12596602 18 18131358552877295635
12616971 3 18060699506968891933
13668630 136 14924237014421127347
13782708 43 17022895706276490018
13955234 65 18336261366608288512
14341114 176 18411984658670406868
14849402 71 18341050830637362752
14950920 106 18412547621988505593
14955137 171 18059294258637384468
15064981 113 13047037556887478939
15238133 3 16630813209273674882
15250474 111 18200304537124402575
15348495 7 17846491564850391634
15880784 105 18335707178192283907
16110190 28 18343588456081176067
17349148 13 14851603267600167297
17780758 139 18341894078682476395
17844677 252 18411140233930231093
1813 80 17095524041359386189
18222031 100 16081084900419516063
19377110 9 18270674406356111585
19841028 212 18191017014587984851
20028762 73 18342171189461737966
20739085 24 18410863178248196796
21150785 3 14129068023148792610
2303208 19 17894347778384141918
23522609 53 17825700826677691956
23559900 14 18334004008468248404
2838139 119 11383827147799158883
3178227 256 18409452466808018258
350125 39 18412263935125047972
4093350 32 17132120178400387556
465052 167 18334579014948822470
5104073 3 18271804665712613403
7495541 125 18113617872427631590
8863177 126 18041285460043012114

> <PUBCHEM_SHAPE_MULTIPOLES>
502.98
16.62
2.69
1.34
2.19
0.67
-0.26
-6.02
-5.77
-1.42
0.1
0.89
-0.09
-0.48

> <PUBCHEM_SHAPE_SELFOVERLAP>
1087.271

> <PUBCHEM_SHAPE_VOLUME>
278.1

> <PUBCHEM_COORDINATE_TYPE>
2
5
10

$$$$
85470505
  -OEChem-05102415133D

 63 66  0     1  0  0  0  0  0999 V2000
    1.4101    4.1731    0.1861 O   0  0  0  0  0  0  0  0  0  0  0  0
    2.6221   -1.5886    0.7052 O   0  0  0  0  0  0  0  0  0  0  0  0
   -4.4649   -1.4755   -0.2592 N   0  0  0  0  0  0  0  0  0  0  0  0
   -3.6685   -4.2545   -0.2233 N   0  0  0  0  0  0  0  0  0  0  0  0
   -0.1438    2.5080   -0.2450 N   0  0  0  0  0  0  0  0  0  0  0  0
    6.9473   -2.1742   -0.6209 N   0  0  0  0  0  0  0  0  0  0  0  0
    6.8180   -2.4985    0.6770 N   0  0  0  0  0  0  0  0  0  0  0  0
   -5.3643   -2.5321   -0.7383 C   0  0  0  0  0  0  0  0  0  0  0  0
   -3.0640   -1.8694   -0.4514 C   0  0  0  0  0  0  0  0  0  0  0  0
   -5.0698   -3.8606   -0.0332 C   0  0  0  0  0  0  0  0  0  0  0  0
   -2.7693   -3.1973    0.2550 C   0  0  0  0  0  0  0  0  0  0  0  0
   -4.7455   -0.2097   -0.9337 C   0  0  0  0  0  0  0  0  0  0  0  0
   -4.2112    0.9675   -0.1619 C   0  0  0  0  0  0  0  0  0  0  0  0
   -3.3884   -5.5195    0.4532 C   0  0  0  0  0  0  0  0  0  0  0  0
   -3.0452    1.6067   -0.5832 C   0  0  0  0  0  0  0  0  0  0  0  0
   -2.5503    2.6974    0.1319 C   0  0  0  0  0  0  0  0  0  0  0  0
   -1.3032    3.3808   -0.3181 C   0  0  2  0  0  0  0  0  0  0  0  0
   -4.8822    1.4186    0.9749 C   0  0  0  0  0  0  0  0  0  0  0  0
   -3.2213    3.1485    1.2686 C   0  0  0  0  0  0  0  0  0  0  0  0
   -4.3871    2.5090    1.6901 C   0  0  0  0  0  0  0  0  0  0  0  0
   -1.4146    3.9771   -1.7291 C   0  0  0  0  0  0  0  0  0  0  0  0
    1.1260    2.9921    0.0043 C   0  0  0  0  0  0  0  0  0  0  0  0
    2.2081    1.9744    0.0212 C   0  0  0  0  0  0  0  0  0  0  0  0
    1.9176    0.6522    0.3576 C   0  0  0  0  0  0  0  0  0  0  0  0
    3.5149    2.3410   -0.3011 C   0  0  0  0  0  0  0  0  0  0  0  0
    4.2404    0.0633    0.0493 C   0  0  0  0  0  0  0  0  0  0  0  0
    2.9337   -0.3034    0.3716 C   0  0  0  0  0  0  0  0  0  0  0  0
    4.5310    1.3856   -0.2868 C   0  0  0  0  0  0  0  0  0  0  0  0
    5.3026   -0.9062    0.0558 C   0  0  0  0  0  0  0  0  0  0  0  0
    6.0632   -1.2251   -1.0426 C   0  0  0  0  0  0  0  0  0  0  0  0
    5.8117   -1.7207    1.0849 C   0  0  0  0  0  0  0  0  0  0  0  0
    2.2466   -2.4597   -0.3590 C   0  0  0  0  0  0  0  0  0  0  0  0
   -6.4057   -2.2588   -0.5285 H   0  0  0  0  0  0  0  0  0  0  0  0
   -5.2719   -2.6608   -1.8254 H   0  0  0  0  0  0  0  0  0  0  0  0
   -2.3873   -1.1192   -0.0273 H   0  0  0  0  0  0  0  0  0  0  0  0
   -2.8230   -1.9610   -1.5193 H   0  0  0  0  0  0  0  0  0  0  0  0
   -5.3102   -3.7723    1.0351 H   0  0  0  0  0  0  0  0  0  0  0  0
   -5.7307   -4.6281   -0.4539 H   0  0  0  0  0  0  0  0  0  0  0  0
   -1.7284   -3.4744    0.0475 H   0  0  0  0  0  0  0  0  0  0  0  0
   -2.8619   -3.0658    1.3417 H   0  0  0  0  0  0  0  0  0  0  0  0
   -5.8307   -0.0578   -1.0214 H   0  0  0  0  0  0  0  0  0  0  0  0
   -4.3723   -0.2063   -1.9670 H   0  0  0  0  0  0  0  0  0  0  0  0
   -2.3542   -5.8320    0.2708 H   0  0  0  0  0  0  0  0  0  0  0  0
   -4.0309   -6.3156    0.0608 H   0  0  0  0  0  0  0  0  0  0  0  0
   -3.5429   -5.4541    1.5363 H   0  0  0  0  0  0  0  0  0  0  0  0
   -2.5247    1.2472   -1.4676 H   0  0  0  0  0  0  0  0  0  0  0  0
   -1.1043    4.2260    0.3544 H   0  0  0  0  0  0  0  0  0  0  0  0
   -5.7914    0.9288    1.3134 H   0  0  0  0  0  0  0  0  0  0  0  0
   -2.8495    3.9962    1.8379 H   0  0  0  0  0  0  0  0  0  0  0  0
   -4.9094    2.8600    2.5753 H   0  0  0  0  0  0  0  0  0  0  0  0
   -1.5177    3.1989   -2.4936 H   0  0  0  0  0  0  0  0  0  0  0  0
   -2.2812    4.6429   -1.8057 H   0  0  0  0  0  0  0  0  0  0  0  0
   -0.5197    4.5579   -1.9788 H   0  0  0  0  0  0  0  0  0  0  0  0
   -0.2819    1.5320   -0.4853 H   0  0  0  0  0  0  0  0  0  0  0  0
    0.9180    0.3384    0.6456 H   0  0  0  0  0  0  0  0  0  0  0  0
    3.7606    3.3651   -0.5695 H   0  0  0  0  0  0  0  0  0  0  0  0
    5.5432    1.6940   -0.5382 H   0  0  0  0  0  0  0  0  0  0  0  0
    6.0596   -0.8759   -2.0660 H   0  0  0  0  0  0  0  0  0  0  0  0
    5.4946   -1.7826    2.1165 H   0  0  0  0  0  0  0  0  0  0  0  0
    7.6628   -2.6420   -1.1633 H   0  0  0  0  0  0  0  0  0  0  0  0
    2.0875   -3.4585    0.0567 H   0  0  0  0  0  0  0  0  0  0  0  0
    3.0334   -2.5189   -1.1172 H   0  0  0  0  0  0  0  0  0  0  0  0
    1.3118   -2.1197   -0.8162 H   0  0  0  0  0  0  0  0  0  0  0  0
  1 22  2  0  0  0  0
  2 27  1  0  0  0  0
  2 32  1  0  0  0  0
  3  8  1  0  0  0  0
  3  9  1  0  0  0  0
  3 12  1  0  0  0  0
  4 10  1  0  0  0  0
  4 11  1  0  0  0  0
  4 14  1  0  0  0  0
  5 17  1  0  0  0  0
  5 22  1  0  0  0  0
  5 54  1  0  0  0  0
  6  7  1  0  0  0  0
  6 30  1  0  0  0  0
  6 60  1  0  0  0  0
  7 31  2  0  0  0  0
  8 10  1  0  0  0  0
  8 33  1  0  0  0  0
  8 34  1  0  0  0  0
  9 11  1  0  0  0  0
  9 35  1  0  0  0  0
  9 36  1  0  0  0  0
 10 37  1  0  0  0  0
 10 38  1  0  0  0  0
 11 39  1  0  0  0  0
 11 40  1  0  0  0  0
 12 13  1  0  0  0  0
 12 41  1  0  0  0  0
 12 42  1  0  0  0  0
 13 15  2  0  0  0  0
 13 18  1  0  0  0  0
 14 43  1  0  0  0  0
 14 44  1  0  0  0  0
 14 45  1  0  0  0  0
 15 16  1  0  0  0  0
 15 46  1  0  0  0  0
 16 17  1  0  0  0  0
 16 19  2  0  0  0  0
 17 21  1  0  0  0  0
 17 47  1  0  0  0  0
 18 20  2  0  0  0  0
 18 48  1  0  0  0  0
 19 20  1  0  0  0  0
 19 49  1  0  0  0  0
 20 50  1  0  0  0  0
 21 51  1  0  0  0  0
 21 52  1  0  0  0  0
 21 53  1  0  0  0  0
 22 23  1  0  0  0  0
 23 24  2  0  0  0  0
 23 25  1  0  0  0  0
 24 27  1  0  0  0  0
 24 55  1  0  0  0  0
 25 28  2  0  0  0  0
 25 56  1  0  0  0  0
 26 27  2  0  0  0  0
 26 28  1  0  0  0  0
 26 29  1  0  0  0  0
 28 57  1  0  0  0  0
 29 30  2  0  0  0  0
 29 31  1  0  0  0  0
 30 58  1  0  0  0  0
 31 59  1  0  0  0  0
 32 61  1  0  0  0  0
 32 62  1  0  0  0  0
 32 63  1  0  0  0  0
M  END
> <PUBCHEM_COMPOUND_CID>
85470505

> <PUBCHEM_CONFORMER_RMSD>
1

> <PUBCHEM_CONFORMER_DIVERSEORDER>
1
34
31
78
174
164
4
179
161
175
18
57
151
153
44
12
146
11
131
177
137
98
10
183
99
135
124
134
112
114
32
69
67
158
187
125
116
25
83
113
65
94
138
38
211
186
21
20
39
86
96
212
30
54
80
142
206
128
63
160
36
111
9
178
188
191
95
119
209
72
97
106
93
92
172
74
51
53
200
199
89
194
81
84
50
15
129
71
203
117
104
182
139
62
46
40
150
180
156
100
5
61
2
141
52
118
193
159
192
14
190
19
79
35
91
107
202
103
184
165
76
133
169
195
181
154
29
42
123
189
68
136
13
41
49
167
127
27
166
122
26
75
162
140
109
185
130
201
73
168
210
176
155
152
59
55
16
115
56
197
132
120
144
148
207
82
157
23
3
48
47
66
110
147
149
171
87
196
163
205
126
198
90
33
70
60
6
85
204
77
37
45
17
101
24
145
121
170
64
208
7
105
22
102
143
173
58
28
43
108
88
8

> <PUBCHEM_MMFF94_PARTIAL_CHARGES>
42
1 -0.57
10 0.27
11 0.27
12 0.41
13 -0.14
14 0.27
15 -0.15
16 -0.14
17 0.44
18 -0.15
19 -0.15
2 -0.36
20 -0.15
22 0.54
23 0.09
24 -0.15
25 -0.15
26 0.05
27 0.08
28 -0.15
29 -0.05
3 -0.81
30 -0.3
31 0.14
32 0.28
4 -0.81
46 0.15
48 0.15
49 0.15
5 -0.73
50 0.15
54 0.37
55 0.15
56 0.15
57 0.15
58 0.15
59 0.15
6 0.3
60 0.27
7 -0.71
8 0.27
9 0.27

> <PUBCHEM_EFFECTIVE_ROTOR_COUNT>
9.2

> <PUBCHEM_PHARMACOPHORE_FEATURES>
11
1 1 acceptor
1 2 acceptor
1 3 cation
1 4 cation
1 5 donor
1 6 donor
1 7 acceptor
5 6 7 29 30 31 rings
6 13 15 16 18 19 20 rings
6 23 24 25 26 27 28 rings
6 3 4 8 9 10 11 rings

> <PUBCHEM_HEAVY_ATOM_COUNT>
32

> <PUBCHEM_ATOM_DEF_STEREO_COUNT>
0

> <PUBCHEM_ATOM_UDEF_STEREO_COUNT>
1

> <PUBCHEM_BOND_DEF_STEREO_COUNT>
0

> <PUBCHEM_BOND_UDEF_STEREO_COUNT>
0

> <PUBCHEM_ISOTOPIC_ATOM_COUNT>
0

> <PUBCHEM_COMPONENT_COUNT>
1

> <PUBCHEM_CACTVS_TAUTO_COUNT>
9

> <PUBCHEM_CONFORMER_ID>
05182D2900000001

> <PUBCHEM_MMFF94_ENERGY>
88.2679

> <PUBCHEM_FEATURE_SELFOVERLAP>
55.824

> <PUBCHEM_SHAPE_FINGERPRINT>
10290309 65 17761214315189324981
10305334 12 18270685251939525975
10319688 45 18337669711495223444
10622 236 18268423702186134165
10928967 22 18260546680135533033
11014199 57 18337954618218563321
11136131 41 17974558402331678064
11285246 1 18115022038796808595
11315621 246 18336834091521569476
11374522 301 17251196384659545211
117089 54 18340211898184490342
11756154 67 18408889533844081255
13165053 137 18341328877998309227
1361 4 18411983568502815172
13690498 29 17968660385056896684
14040221 299 18198629839186231758
14117953 113 18338792300593918797
14429380 30 18409166636106604762
14856354 85 18411702045880849934
14866123 147 18341618114412472737
15001296 14 18335977640846772392
15274700 232 17910122313945542502
15320467 1 18410572851512908167
15728490 83 18264496268327547587
15911013 46 18268428121586844401
17492 89 18267302226063905495
17627616 140 17971745580466843131
17909252 39 18052258689177929328
19301676 85 18194955478123795079
19311894 1 18409728452215092435
20028762 73 18270115709174700414
20775530 9 18265886051045641753
23522609 53 17976858348729433252
23559900 14 18267573784177764777
23569914 152 17912331494930281039
3146121 3 18337950204089883896
32027 91 18340195380135837061
4435113 14 17701553818082246550
4616759 239 17843950465362520488
463206 1 18409173198827364656
484985 159 18336256852507684637
5104073 3 18060137648006470008
57676310 1 15165745164027484810
7970288 3 18409726270387445660

> <PUBCHEM_SHAPE_MULTIPOLES>
621.9
16.23
7.1
1.09
16.74
3.72
-0.05
14.36
-0.4
-8.46
-0.04
-0.52
-0.58
-1.37

> <PUBCHEM_SHAPE_SELFOVERLAP>
1332.178

> <PUBCHEM_SHAPE_VOLUME>
347

> <PUBCHEM_COORDINATE_TYPE>
2
5
10

$$$$
118662928
  -OEChem-05102415133D

 44 46  0     1  0  0  0  0  0999 V2000
   -4.7746   -2.2483   -0.9769 Cl  0  0  0  0  0  0  0  0  0  0  0  0
   -2.9938    1.7329   -0.8027 O   0  0  0  0  0  0  0  0  0  0  0  0
    3.3836    1.9330   -0.4843 O   0  0  0  0  0  0  0  0  0  0  0  0
   -0.9025   -2.0867    0.1535 O   0  0  0  0  0  0  0  0  0  0  0  0
   -1.1643    0.1402    0.7444 N   0  0  0  0  0  0  0  0  0  0  0  0
    7.3362   -0.1704    0.3890 N   0  0  0  0  0  0  0  0  0  0  0  0
    7.3114    0.2467   -0.8884 N   0  0  0  0  0  0  0  0  0  0  0  0
   -3.3402    0.4199   -0.3621 C   0  0  1  0  0  0  0  0  0  0  0  0
   -2.5965    0.0962    0.9339 C   0  0  0  0  0  0  0  0  0  0  0  0
   -4.8387    0.3566   -0.1781 C   0  0  0  0  0  0  0  0  0  0  0  0
    1.0351   -0.7687    0.2365 C   0  0  0  0  0  0  0  0  0  0  0  0
    3.7885   -0.3863    0.0002 C   0  0  0  0  0  0  0  0  0  0  0  0
   -0.3999   -0.9681    0.3616 C   0  0  0  0  0  0  0  0  0  0  0  0
    2.9168    0.6869   -0.1854 C   0  0  0  0  0  0  0  0  0  0  0  0
    1.5401    0.4956   -0.0672 C   0  0  0  0  0  0  0  0  0  0  0  0
    1.9069   -1.8419    0.4221 C   0  0  0  0  0  0  0  0  0  0  0  0
    3.2834   -1.6506    0.3037 C   0  0  0  0  0  0  0  0  0  0  0  0
   -5.5593   -0.8099   -0.4345 C   0  0  0  0  0  0  0  0  0  0  0  0
   -5.5013    1.5038    0.2591 C   0  0  0  0  0  0  0  0  0  0  0  0
    5.2112   -0.2108   -0.1153 C   0  0  0  0  0  0  0  0  0  0  0  0
   -6.9423   -0.8293   -0.2539 C   0  0  0  0  0  0  0  0  0  0  0  0
   -6.8843    1.4842    0.4400 C   0  0  0  0  0  0  0  0  0  0  0  0
    6.1041   -0.4574    0.8990 C   0  0  0  0  0  0  0  0  0  0  0  0
   -7.6049    0.3178    0.1833 C   0  0  0  0  0  0  0  0  0  0  0  0
    6.0107    0.2200   -1.1909 C   0  0  0  0  0  0  0  0  0  0  0  0
    3.6747    2.7947    0.6135 C   0  0  0  0  0  0  0  0  0  0  0  0
   -3.0067   -0.2462   -1.1644 H   0  0  0  0  0  0  0  0  0  0  0  0
   -2.8764   -0.8922    1.3148 H   0  0  0  0  0  0  0  0  0  0  0  0
   -2.8251    0.8375    1.7083 H   0  0  0  0  0  0  0  0  0  0  0  0
   -0.7115    1.0217    0.9602 H   0  0  0  0  0  0  0  0  0  0  0  0
    0.8896    1.3464   -0.2505 H   0  0  0  0  0  0  0  0  0  0  0  0
    1.5338   -2.8339    0.6631 H   0  0  0  0  0  0  0  0  0  0  0  0
    3.9446   -2.5019    0.4491 H   0  0  0  0  0  0  0  0  0  0  0  0
   -4.9663    2.4227    0.4828 H   0  0  0  0  0  0  0  0  0  0  0  0
   -3.4504    1.8948   -1.6465 H   0  0  0  0  0  0  0  0  0  0  0  0
   -7.5184   -1.7303   -0.4492 H   0  0  0  0  0  0  0  0  0  0  0  0
   -7.4000    2.3759    0.7842 H   0  0  0  0  0  0  0  0  0  0  0  0
    5.9837   -0.8014    1.9171 H   0  0  0  0  0  0  0  0  0  0  0  0
   -8.6816    0.3026    0.3249 H   0  0  0  0  0  0  0  0  0  0  0  0
    5.7038    0.5161   -2.1843 H   0  0  0  0  0  0  0  0  0  0  0  0
    8.2325   -0.2361    0.8550 H   0  0  0  0  0  0  0  0  0  0  0  0
    4.4171    2.3462    1.2807 H   0  0  0  0  0  0  0  0  0  0  0  0
    2.7607    3.0224    1.1711 H   0  0  0  0  0  0  0  0  0  0  0  0
    4.0824    3.7284    0.2165 H   0  0  0  0  0  0  0  0  0  0  0  0
  1 18  1  0  0  0  0
  2  8  1  0  0  0  0
  2 35  1  0  0  0  0
  3 14  1  0  0  0  0
  3 26  1  0  0  0  0
  4 13  2  0  0  0  0
  5  9  1  0  0  0  0
  5 13  1  0  0  0  0
  5 30  1  0  0  0  0
  6  7  1  0  0  0  0
  6 23  1  0  0  0  0
  6 41  1  0  0  0  0
  7 25  2  0  0  0  0
  8  9  1  0  0  0  0
  8 10  1  0  0  0  0
  8 27  1  0  0  0  0
  9 28  1  0  0  0  0
  9 29  1  0  0  0  0
 10 18  1  0  0  0  0
 10 19  2  0  0  0  0
 11 13  1  0  0  0  0
 11 15  2  0  0  0  0
 11 16  1  0  0  0  0
 12 14  2  0  0  0  0
 12 17  1  0  0  0  0
 12 20  1  0  0  0  0
 14 15  1  0  0  0  0
 15 31  1  0  0  0  0
 16 17  2  0  0  0  0
 16 32  1  0  0  0  0
 17 33  1  0  0  0  0
 18 21  2  0  0  0  0
 19 22  1  0  0  0  0
 19 34  1  0  0  0  0
 20 23  2  0  0  0  0
 20 25  1  0  0  0  0
 21 24  1  0  0  0  0
 21 36  1  0  0  0  0
 22 24  2  0  0  0  0
 22 37  1  0  0  0  0
 23 38  1  0  0  0  0
 24 39  1  0  0  0  0
 25 40  1  0  0  0  0
 26 42  1  0  0  0  0
 26 43  1  0  0  0  0
 26 44  1  0  0  0  0
M  END
> <PUBCHEM_COMPOUND_CID>
118662928

> <PUBCHEM_CONFORMER_RMSD>
0.8

> <PUBCHEM_CONFORMER_DIVERSEORDER>
1
50
247
181
238
66
86
35
120
222
108
208
235
34
73
150
183
167
179
68
140
257
233
196
69
218
62
87
213
136
261
161
67
116
185
26
138
130
202
103
245
191
80
201
159
176
172
102
193
135
83
37
27
46
263
139
251
131
177
240
173
89
124
31
175
169
224
15
51
268
43
231
36
186
236
115
206
122
259
119
195
242
117
156
65
113
262
148
200
111
53
49
228
184
32
76
207
168
253
105
241
188
19
205
42
266
158
171
74
104
18
197
41
97
118
163
92
133
141
114
28
249
60
13
96
21
160
209
110
137
77
59
232
204
30
256
24
264
106
194
230
147
123
219
153
170
265
182
99
227
109
107
190
198
174
10
199
155
2
248
8
33
220
216
129
237
40
101
11
57
14
154
126
17
144
225
254
90
151
23
7
121
48
20
223
250
192
165
125
269
152
29
45
16
127
178
146
203
52
64
210
84
9
229
95
244
58
78
132
82
252
255
63
70
94
91
149
12
71
267
85
112
258
211
234
142
88
98
189
38
93
239
25
22
221
187
180
55
75
226
246
61
260
164
81
100
39
54
47
214
157
217
162
145
143
6
134
243
4
215
128
5
212
56
44
79
72
3
166

> <PUBCHEM_MMFF94_PARTIAL_CHARGES>
38
1 -0.18
10 -0.14
11 0.09
12 0.05
13 0.54
14 0.08
15 -0.15
16 -0.15
17 -0.15
18 0.18
19 -0.15
2 -0.68
20 -0.05
21 -0.15
22 -0.15
23 -0.3
24 -0.15
25 0.14
26 0.28
3 -0.36
30 0.37
31 0.15
32 0.15
33 0.15
34 0.15
35 0.4
36 0.15
37 0.15
38 0.15
39 0.15
4 -0.57
40 0.15
41 0.27
5 -0.73
6 0.3
7 -0.71
8 0.42
9 0.3

> <PUBCHEM_EFFECTIVE_ROTOR_COUNT>
7

> <PUBCHEM_PHARMACOPHORE_FEATURES>
10
1 2 acceptor
1 2 donor
1 3 acceptor
1 4 acceptor
1 5 donor
1 6 donor
1 7 acceptor
5 6 7 20 23 25 rings
6 10 18 19 21 22 24 rings
6 11 12 14 15 16 17 rings

> <PUBCHEM_HEAVY_ATOM_COUNT>
26

> <PUBCHEM_ATOM_DEF_STEREO_COUNT>
0

> <PUBCHEM_ATOM_UDEF_STEREO_COUNT>
1

> <PUBCHEM_BOND_DEF_STEREO_COUNT>
0

> <PUBCHEM_BOND_UDEF_STEREO_COUNT>
0

> <PUBCHEM_ISOTOPIC_ATOM_COUNT>
0

> <PUBCHEM_COMPONENT_COUNT>
1

> <PUBCHEM_CACTVS_TAUTO_COUNT>
9

> <PUBCHEM_CONFORMER_ID>
0712A71000000001

> <PUBCHEM_MMFF94_ENERGY>
76.335

> <PUBCHEM_FEATURE_SELFOVERLAP>
50.75

> <PUBCHEM_SHAPE_FINGERPRINT>
10 15 13406801047071439814
10050765 1 18123187068095070778
10299344 5 18413389835242646695
10595046 47 18337389340941552451
11089746 13 18335420188171707154
11315181 36 16630808816492828355
11524674 6 16630524047155058415
11719270 70 18343017757896814510
12236239 1 18272931600580122739
12788726 201 17203049561574940923
13533116 47 17168132400032430371
14123256 10 18408604760475048231
14170010 4 18411418406488326936
14251764 18 18113618975717281346
14849402 71 18335140938115377540
14856354 85 17775287180026382007
14933364 13 18412265025919867685
15183329 4 18410011039503546667
15419008 47 17203602666593531816
1577012 14 18340201904491398251
15849732 13 17489586766633643636
18006028 8 9151169848738413963
18335252 98 18041287621350636931
18681886 176 18131062766273008402
19489759 90 11314310538639869711
21150785 3 18272654558705708102
22224240 67 13118285892844199960
23559900 14 18202277030702752089
23576562 1 18117853311556089516
249057 3 18272931644173192173
2838139 119 17822009817603155677
3004659 81 18341893004228658368
335352 9 18408046217606459334
350125 39 18408882936315423924
3545911 37 18260548926624532667
4073 2 18113903817885555754
4325135 7 18412262835713400207
53794403 172 18116719706225476380
5758199 1 18333733507043314923
59755656 215 18408888421258011102
59755656 520 17385721426454361571

> <PUBCHEM_SHAPE_MULTIPOLES>
504.39
22.33
2.08
0.9
5.47
0.33
0.06
2.78
1.93
0.54
-0.01
-0.4
-0.02
-0.92

> <PUBCHEM_SHAPE_SELFOVERLAP>
1083.909

> <PUBCHEM_SHAPE_VOLUME>
279.3

> <PUBCHEM_COORDINATE_TYPE>
2
5
10

$$$$
118663019
  -OEChem-05102415133D

 40 42  0     0  0  0  0  0  0999 V2000
    6.7806    1.5508    2.2166 Cl  0  0  0  0  0  0  0  0  0  0  0  0
    3.5442    1.6914   -1.6776 F   0  0  0  0  0  0  0  0  0  0  0  0
   -2.5926    1.9110   -0.3442 O   0  0  0  0  0  0  0  0  0  0  0  0
    1.2620   -2.5350    0.2140 O   0  0  0  0  0  0  0  0  0  0  0  0
    1.5686   -0.7791   -1.2692 N   0  0  0  0  0  0  0  0  0  0  0  0
   -6.7629    0.1490    0.2157 N   0  0  0  0  0  0  0  0  0  0  0  0
   -6.5037    1.0331    1.1942 N   0  0  0  0  0  0  0  0  0  0  0  0
   -3.2209   -0.3386    0.2234 C   0  0  0  0  0  0  0  0  0  0  0  0
   -0.5734   -1.1265   -0.1680 C   0  0  0  0  0  0  0  0  0  0  0  0
   -2.2627    0.6009   -0.1575 C   0  0  0  0  0  0  0  0  0  0  0  0
    2.9451   -1.0746   -1.5966 C   0  0  0  0  0  0  0  0  0  0  0  0
   -0.9389    0.2068   -0.3531 C   0  0  0  0  0  0  0  0  0  0  0  0
   -4.5915    0.0457    0.4287 C   0  0  0  0  0  0  0  0  0  0  0  0
   -2.8553   -1.6720    0.4088 C   0  0  0  0  0  0  0  0  0  0  0  0
   -1.5317   -2.0660    0.2129 C   0  0  0  0  0  0  0  0  0  0  0  0
    3.9026   -0.4166   -0.6457 C   0  0  0  0  0  0  0  0  0  0  0  0
    0.8062   -1.5379   -0.3737 C   0  0  0  0  0  0  0  0  0  0  0  0
   -5.6515   -0.4696   -0.2768 C   0  0  0  0  0  0  0  0  0  0  0  0
    4.1537    0.9523   -0.7399 C   0  0  0  0  0  0  0  0  0  0  0  0
    4.5414   -1.1770    0.3340 C   0  0  0  0  0  0  0  0  0  0  0  0
   -5.1757    0.9656    1.3199 C   0  0  0  0  0  0  0  0  0  0  0  0
    5.0436    1.5607    0.1454 C   0  0  0  0  0  0  0  0  0  0  0  0
    5.4315   -0.5687    1.2190 C   0  0  0  0  0  0  0  0  0  0  0  0
    5.6826    0.8003    1.1247 C   0  0  0  0  0  0  0  0  0  0  0  0
   -3.0015    2.2940   -1.6551 C   0  0  0  0  0  0  0  0  0  0  0  0
    3.1286   -0.7227   -2.6182 H   0  0  0  0  0  0  0  0  0  0  0  0
    3.0849   -2.1619   -1.6037 H   0  0  0  0  0  0  0  0  0  0  0  0
   -0.2133    0.9712   -0.6174 H   0  0  0  0  0  0  0  0  0  0  0  0
   -3.5853   -2.4203    0.7088 H   0  0  0  0  0  0  0  0  0  0  0  0
   -1.2682   -3.1104    0.3586 H   0  0  0  0  0  0  0  0  0  0  0  0
    1.1459   -0.0051   -1.7702 H   0  0  0  0  0  0  0  0  0  0  0  0
    4.3543   -2.2440    0.4200 H   0  0  0  0  0  0  0  0  0  0  0  0
   -5.7209   -1.2023   -1.0690 H   0  0  0  0  0  0  0  0  0  0  0  0
   -4.6927    1.5912    2.0574 H   0  0  0  0  0  0  0  0  0  0  0  0
    5.2292    2.6282    0.0601 H   0  0  0  0  0  0  0  0  0  0  0  0
    5.9219   -1.1737    1.9774 H   0  0  0  0  0  0  0  0  0  0  0  0
   -7.7254    0.0167   -0.0688 H   0  0  0  0  0  0  0  0  0  0  0  0
   -3.8701    1.7143   -1.9823 H   0  0  0  0  0  0  0  0  0  0  0  0
   -2.1774    2.1643   -2.3638 H   0  0  0  0  0  0  0  0  0  0  0  0
   -3.2777    3.3517   -1.6317 H   0  0  0  0  0  0  0  0  0  0  0  0
  1 24  1  0  0  0  0
  2 19  1  0  0  0  0
  3 10  1  0  0  0  0
  3 25  1  0  0  0  0
  4 17  2  0  0  0  0
  5 11  1  0  0  0  0
  5 17  1  0  0  0  0
  5 31  1  0  0  0  0
  6  7  1  0  0  0  0
  6 18  1  0  0  0  0
  6 37  1  0  0  0  0
  7 21  2  0  0  0  0
  8 10  2  0  0  0  0
  8 13  1  0  0  0  0
  8 14  1  0  0  0  0
  9 12  2  0  0  0  0
  9 15  1  0  0  0  0
  9 17  1  0  0  0  0
 10 12  1  0  0  0  0
 11 16  1  0  0  0  0
 11 26  1  0  0  0  0
 11 27  1  0  0  0  0
 12 28  1  0  0  0  0
 13 18  2  0  0  0  0
 13 21  1  0  0  0  0
 14 15  2  0  0  0  0
 14 29  1  0  0  0  0
 15 30  1  0  0  0  0
 16 19  2  0  0  0  0
 16 20  1  0  0  0  0
 18 33  1  0  0  0  0
 19 22  1  0  0  0  0
 20 23  2  0  0  0  0
 20 32  1  0  0  0  0
 21 34  1  0  0  0  0
 22 24  2  0  0  0  0
 22 35  1  0  0  0  0
 23 24  1  0  0  0  0
 23 36  1  0  0  0  0
 25 38  1  0  0  0  0
 25 39  1  0  0  0  0
 25 40  1  0  0  0  0
M  END
> <PUBCHEM_COMPOUND_CID>
118663019

> <PUBCHEM_CONFORMER_RMSD>
0.8

> <PUBCHEM_CONFORMER_DIVERSEORDER>
1
37
11
32
55
41
66
24
64
38
30
26
60
49
46
12
52
29
42
48
44
65
40
51
16
45
33
23
43
62
9
5
36
28
47
61
8
53
31
35
56
19
50
58
17
34
54
25
57
13
18
6
27
4
7
20
63
39
15
21
22
10
2
59
14
3

> <PUBCHEM_MMFF94_PARTIAL_CHARGES>
35
1 -0.18
10 0.08
11 0.44
12 -0.15
13 -0.05
14 -0.15
15 -0.15
16 -0.14
17 0.54
18 -0.3
19 0.19
2 -0.19
20 -0.15
21 0.14
22 -0.15
23 -0.15
24 0.18
25 0.28
28 0.15
29 0.15
3 -0.36
30 0.15
31 0.37
32 0.15
33 0.15
34 0.15
35 0.15
36 0.15
37 0.27
4 -0.57
5 -0.73
6 0.3
7 -0.71
8 0.05
9 0.09

> <PUBCHEM_EFFECTIVE_ROTOR_COUNT>
6

> <PUBCHEM_PHARMACOPHORE_FEATURES>
8
1 3 acceptor
1 4 acceptor
1 5 donor
1 6 donor
1 7 acceptor
5 6 7 13 18 21 rings
6 16 19 20 22 23 24 rings
6 8 9 10 12 14 15 rings

> <PUBCHEM_HEAVY_ATOM_COUNT>
25

> <PUBCHEM_ATOM_DEF_STEREO_COUNT>
0

> <PUBCHEM_ATOM_UDEF_STEREO_COUNT>
0

> <PUBCHEM_BOND_DEF_STEREO_COUNT>
0

> <PUBCHEM_BOND_UDEF_STEREO_COUNT>
0

> <PUBCHEM_ISOTOPIC_ATOM_COUNT>
0

> <PUBCHEM_COMPONENT_COUNT>
1

> <PUBCHEM_CACTVS_TAUTO_COUNT>
9

> <PUBCHEM_CONFORMER_ID>
0712A76B00000001

> <PUBCHEM_MMFF94_ENERGY>
67.5375

> <PUBCHEM_FEATURE_SELFOVERLAP>
40.597

> <PUBCHEM_SHAPE_FINGERPRINT>
10 15 18040997371312381528
12403259 415 18338235964541375932
12616971 3 17313384573373529630
12633257 1 18261111928418450116
12760667 363 11097849666513684318
12895836 83 16558745741195597687
12925494 130 17901379000900078493
13150687 139 10231463173967423634
13402501 40 18342455954314201784
13533116 47 17749672887625103618
13685833 64 13334731337062385066
13782708 43 14274034276764791393
13914758 101 14851879224028913981
15238133 3 18339926043427255640
15348495 7 16805897297966428857
15510800 12 13479950392232699496
17349148 13 16443358567329586023
21150785 3 15339115745730698073
21315764 268 18333726910221487612
21792934 111 18041280951260995029
21859007 373 17168973488079045415
221357 26 8646774391596966086
22149856 69 18196400099052500859
2215653 11 9079111142303579513
23016692 55 8358262548842187530
23559900 14 18340226119396012870
2838139 119 16558739153665468112
2916195 48 18202002110051902187
3472631 163 17131829923998567432
34797466 226 16200442385346903629
3680242 22 18334583416699223528
4340502 62 17313112934204386027
465052 167 13551191087358379954
5104073 3 17750243671329243298
543368 44 17561363989691152129
6913067 236 18186239520157043319
8509985 295 18260831522930742084
86090 222 14346068660725781464
960060 61 10231753388426958410

> <PUBCHEM_SHAPE_MULTIPOLES>
482.4
17.59
2.2
1.5
0.46
0.09
0.06
-8.16
-7.95
0.45
0.15
1.48
-0.7
0.99

> <PUBCHEM_SHAPE_SELFOVERLAP>
1043.394

> <PUBCHEM_SHAPE_VOLUME>
266.7

> <PUBCHEM_COORDINATE_TYPE>
2
5
10

$$$$
118663079
  -OEChem-05102415133D

 50 53  0     0  0  0  0  0  0999 V2000
   -6.0195    0.9934   -1.1308 O   0  0  0  0  0  0  0  0  0  0  0  0
    0.4649   -3.3833    0.1829 O   0  0  0  0  0  0  0  0  0  0  0  0
   -4.1762    1.9597   -0.1120 N   0  0  0  0  0  0  0  0  0  0  0  0
   -0.4407   -1.6011    1.3545 N   0  0  0  0  0  0  0  0  0  0  0  0
    7.1931    1.4445   -1.1751 N   0  0  0  0  0  0  0  0  0  0  0  0
    7.1506    2.1224   -0.0155 N   0  0  0  0  0  0  0  0  0  0  0  0
   -4.6653    3.3100   -0.1475 C   0  0  0  0  0  0  0  0  0  0  0  0
   -4.1777    4.3444    0.8297 C   0  0  0  0  0  0  0  0  0  0  0  0
   -5.5849    3.8339    0.9214 C   0  0  0  0  0  0  0  0  0  0  0  0
   -4.8952    0.8679   -0.6140 C   0  0  0  0  0  0  0  0  0  0  0  0
   -4.2616   -0.4383   -0.5272 C   0  0  0  0  0  0  0  0  0  0  0  0
   -3.3241   -0.6937    0.4738 C   0  0  0  0  0  0  0  0  0  0  0  0
   -4.5906   -1.4354   -1.4454 C   0  0  0  0  0  0  0  0  0  0  0  0
   -2.7160   -1.9464    0.5567 C   0  0  0  0  0  0  0  0  0  0  0  0
   -1.7062   -2.2214    1.6332 C   0  0  0  0  0  0  0  0  0  0  0  0
   -3.9823   -2.6879   -1.3628 C   0  0  0  0  0  0  0  0  0  0  0  0
   -3.0451   -2.9436   -0.3616 C   0  0  0  0  0  0  0  0  0  0  0  0
    4.1401   -0.0084   -0.0115 C   0  0  0  0  0  0  0  0  0  0  0  0
    1.8013   -1.4687    0.4136 C   0  0  0  0  0  0  0  0  0  0  0  0
    2.9257    0.6553    0.1639 C   0  0  0  0  0  0  0  0  0  0  0  0
    0.5825   -2.2306    0.6353 C   0  0  0  0  0  0  0  0  0  0  0  0
    1.7563   -0.0750    0.3765 C   0  0  0  0  0  0  0  0  0  0  0  0
    4.1850   -1.4021    0.0254 C   0  0  0  0  0  0  0  0  0  0  0  0
    3.0157   -2.1323    0.2381 C   0  0  0  0  0  0  0  0  0  0  0  0
    5.3601    0.7210   -0.2332 C   0  0  0  0  0  0  0  0  0  0  0  0
    2.8381    2.1477    0.1298 C   0  0  0  0  0  0  0  0  0  0  0  0
    6.1436    0.5918   -1.3540 C   0  0  0  0  0  0  0  0  0  0  0  0
    6.0286    1.6762    0.5555 C   0  0  0  0  0  0  0  0  0  0  0  0
   -4.8414    3.6565   -1.1612 H   0  0  0  0  0  0  0  0  0  0  0  0
   -4.0293    5.3531    0.4644 H   0  0  0  0  0  0  0  0  0  0  0  0
   -3.4806    4.0387    1.6003 H   0  0  0  0  0  0  0  0  0  0  0  0
   -6.3845    4.4978    0.6166 H   0  0  0  0  0  0  0  0  0  0  0  0
   -5.8316    3.1854    1.7531 H   0  0  0  0  0  0  0  0  0  0  0  0
   -3.2317    1.8360    0.2402 H   0  0  0  0  0  0  0  0  0  0  0  0
   -3.0694    0.0522    1.2219 H   0  0  0  0  0  0  0  0  0  0  0  0
   -5.3148   -1.2553   -2.2356 H   0  0  0  0  0  0  0  0  0  0  0  0
   -2.0668   -1.8304    2.5916 H   0  0  0  0  0  0  0  0  0  0  0  0
   -1.5608   -3.2998    1.7661 H   0  0  0  0  0  0  0  0  0  0  0  0
   -4.2373   -3.4639   -2.0787 H   0  0  0  0  0  0  0  0  0  0  0  0
   -2.5779   -3.9234   -0.3103 H   0  0  0  0  0  0  0  0  0  0  0  0
   -0.2948   -0.6767    1.7460 H   0  0  0  0  0  0  0  0  0  0  0  0
    0.8183    0.4635    0.4799 H   0  0  0  0  0  0  0  0  0  0  0  0
    5.1215   -1.9400   -0.1037 H   0  0  0  0  0  0  0  0  0  0  0  0
    3.0722   -3.2173    0.2690 H   0  0  0  0  0  0  0  0  0  0  0  0
    3.2635    2.5789    1.0413 H   0  0  0  0  0  0  0  0  0  0  0  0
    3.3501    2.5569   -0.7474 H   0  0  0  0  0  0  0  0  0  0  0  0
    1.7982    2.4877    0.0637 H   0  0  0  0  0  0  0  0  0  0  0  0
    6.0566   -0.0125   -2.2464 H   0  0  0  0  0  0  0  0  0  0  0  0
    5.7523    2.0663    1.5251 H   0  0  0  0  0  0  0  0  0  0  0  0
    7.9704    1.6133   -1.8014 H   0  0  0  0  0  0  0  0  0  0  0  0
  1 10  2  0  0  0  0
  2 21  2  0  0  0  0
  3  7  1  0  0  0  0
  3 10  1  0  0  0  0
  3 34  1  0  0  0  0
  4 15  1  0  0  0  0
  4 21  1  0  0  0  0
  4 41  1  0  0  0  0
  5  6  1  0  0  0  0
  5 27  1  0  0  0  0
  5 50  1  0  0  0  0
  6 28  2  0  0  0  0
  7  8  1  0  0  0  0
  7  9  1  0  0  0  0
  7 29  1  0  0  0  0
  8  9  1  0  0  0  0
  8 30  1  0  0  0  0
  8 31  1  0  0  0  0
  9 32  1  0  0  0  0
  9 33  1  0  0  0  0
 10 11  1  0  0  0  0
 11 12  1  0  0  0  0
 11 13  2  0  0  0  0
 12 14  2  0  0  0  0
 12 35  1  0  0  0  0
 13 16  1  0  0  0  0
 13 36  1  0  0  0  0
 14 15  1  0  0  0  0
 14 17  1  0  0  0  0
 15 37  1  0  0  0  0
 15 38  1  0  0  0  0
 16 17  2  0  0  0  0
 16 39  1  0  0  0  0
 17 40  1  0  0  0  0
 18 20  2  0  0  0  0
 18 23  1  0  0  0  0
 18 25  1  0  0  0  0
 19 21  1  0  0  0  0
 19 22  2  0  0  0  0
 19 24  1  0  0  0  0
 20 22  1  0  0  0  0
 20 26  1  0  0  0  0
 22 42  1  0  0  0  0
 23 24  2  0  0  0  0
 23 43  1  0  0  0  0
 24 44  1  0  0  0  0
 25 27  2  0  0  0  0
 25 28  1  0  0  0  0
 26 45  1  0  0  0  0
 26 46  1  0  0  0  0
 26 47  1  0  0  0  0
 27 48  1  0  0  0  0
 28 49  1  0  0  0  0
M  END
> <PUBCHEM_COMPOUND_CID>
118663079

> <PUBCHEM_CONFORMER_RMSD>
1

> <PUBCHEM_CONFORMER_DIVERSEORDER>
2
83
59
4
25
78
61
72
37
14
82
12
45
26
53
88
9
38
71
17
19
44
70
73
1
87
80
60
29
33
62
63
31
13
85
22
6
35
64
74
8
11
67
79
23
39
77
51
84
89
15
52
50
7
21
86
36
46
58
47
10
66
68
69
49
54
81
32
16
24
76
42
28
48
41
40
56
75
43
27
3
65
57
20
30
55
18
5
34

> <PUBCHEM_MMFF94_PARTIAL_CHARGES>
45
1 -0.57
10 0.54
11 0.09
12 -0.15
13 -0.15
14 -0.14
15 0.44
16 -0.15
17 -0.15
18 0.05
19 0.09
2 -0.57
20 -0.14
21 0.54
22 -0.15
23 -0.15
24 -0.15
25 -0.05
26 0.14
27 -0.3
28 0.14
29 0.1
3 -0.58
30 0.1
31 0.1
32 0.1
33 0.1
34 0.37
35 0.15
36 0.15
39 0.15
4 -0.73
40 0.15
41 0.37
42 0.15
43 0.15
44 0.15
48 0.15
49 0.15
5 0.3
50 0.27
6 -0.71
7 0.05
8 -0.2
9 -0.2

> <PUBCHEM_EFFECTIVE_ROTOR_COUNT>
8.6

> <PUBCHEM_PHARMACOPHORE_FEATURES>
9
1 1 acceptor
1 2 acceptor
1 3 donor
1 4 donor
1 5 donor
1 6 acceptor
5 5 6 25 27 28 rings
6 11 12 13 14 16 17 rings
6 18 19 20 22 23 24 rings

> <PUBCHEM_HEAVY_ATOM_COUNT>
28

> <PUBCHEM_ATOM_DEF_STEREO_COUNT>
0

> <PUBCHEM_ATOM_UDEF_STEREO_COUNT>
0

> <PUBCHEM_BOND_DEF_STEREO_COUNT>
0

> <PUBCHEM_BOND_UDEF_STEREO_COUNT>
0

> <PUBCHEM_ISOTOPIC_ATOM_COUNT>
0

> <PUBCHEM_COMPONENT_COUNT>
1

> <PUBCHEM_CACTVS_TAUTO_COUNT>
40

> <PUBCHEM_CONFORMER_ID>
0712A7A700000002

> <PUBCHEM_MMFF94_ENERGY>
72.1543

> <PUBCHEM_FEATURE_SELFOVERLAP>
45.672

> <PUBCHEM_SHAPE_FINGERPRINT>
10670039 82 18336258041569663741
10917259 128 18341034252242760616
10917259 69 18195815072977642460
11374522 363 17326046252842800797
11477941 20 17985533684122988927
12107183 9 18049715218188296923
12895837 130 18411142441770157589
13690498 29 17845646092576162551
13782708 43 12823026313629514238
14187579 7 18341607157402664089
14251764 75 18196095430941310881
14347329 18 18408599279827916328
14765038 42 18268722619036440721
14931854 50 18341321215892191325
15064981 113 17489307430482250422
15064981 194 18262246629082287655
15183329 4 18411698829108723386
15513586 35 16446185557547498751
155225 6 17980202981470174225
16112460 7 18261392200451058600
16126227 98 18341899546313527201
18608769 82 18189058762719073579
21033648 144 17912931879058166442
21774942 28 18341611500105009272
21859007 373 18200019789978139592
22393880 68 18129936900794787402
22864921 47 12607132738855523068
23516275 100 17766538524038562905
23569914 152 17339297619189141526
2748736 6 18334007272764764568
2838139 119 18336825394402860978
312425 83 18129946659287668447
3610482 184 18409174294338911349
397830 11 8069742950125844942
437795 83 18340490083696092076
50677037 204 18333730199839980173
5104073 3 17530963570766861202
5283173 99 18341893034731279432
6034566 193 18128543661576689337
6058803 2 18192408807145624035
6328613 192 17678178411692778308
636775 72 18265894834449753048
7288768 16 17822298946791856315
9980921 221 18266478636263480388

> <PUBCHEM_SHAPE_MULTIPOLES>
544.56
18.26
4.9
1.2
15.97
3.14
-0.08
16.1
-5.42
-7.86
0.99
-0.62
-0.34
-1.98

> <PUBCHEM_SHAPE_SELFOVERLAP>
1183.678

> <PUBCHEM_SHAPE_VOLUME>
298.1

> <PUBCHEM_COORDINATE_TYPE>
2
5
10

$$$$
118668482
  -OEChem-05102415133D

 44 46  0     1  0  0  0  0  0999 V2000
   -4.6076   -1.0506   -1.8137 F   0  0  0  0  0  0  0  0  0  0  0  0
   -2.9597    0.9259    2.1759 F   0  0  0  0  0  0  0  0  0  0  0  0
    3.2687    1.8994    0.5284 O   0  0  0  0  0  0  0  0  0  0  0  0
   -1.2512   -0.8123   -2.1461 O   0  0  0  0  0  0  0  0  0  0  0  0
   -1.5401    0.7721   -0.4778 N   0  0  0  0  0  0  0  0  0  0  0  0
    6.6391   -1.1532    0.8920 N   0  0  0  0  0  0  0  0  0  0  0  0
    7.0246   -0.1368    0.1018 N   0  0  0  0  0  0  0  0  0  0  0  0
   -2.9630    0.9493   -0.6594 C   0  0  1  0  0  0  0  0  0  0  0  0
   -3.7650   -0.0386    0.1615 C   0  0  0  0  0  0  0  0  0  0  0  0
    0.6498   -0.1919   -0.9215 C   0  0  0  0  0  0  0  0  0  0  0  0
    3.3653   -0.3539   -0.3028 C   0  0  0  0  0  0  0  0  0  0  0  0
   -0.7661   -0.1084   -1.2425 C   0  0  0  0  0  0  0  0  0  0  0  0
    2.6576    0.8179   -0.0346 C   0  0  0  0  0  0  0  0  0  0  0  0
    1.2998    0.8988   -0.3440 C   0  0  0  0  0  0  0  0  0  0  0  0
    1.3576   -1.3637   -1.1897 C   0  0  0  0  0  0  0  0  0  0  0  0
    2.7153   -1.4446   -0.8806 C   0  0  0  0  0  0  0  0  0  0  0  0
   -3.3105    2.3781   -0.3421 C   0  0  0  0  0  0  0  0  0  0  0  0
    4.7652   -0.4595    0.0098 C   0  0  0  0  0  0  0  0  0  0  0  0
   -4.5539   -0.9963   -0.4758 C   0  0  0  0  0  0  0  0  0  0  0  0
   -3.7152    0.0095    1.5546 C   0  0  0  0  0  0  0  0  0  0  0  0
   -5.2933   -1.9061    0.2804 C   0  0  0  0  0  0  0  0  0  0  0  0
   -4.4547   -0.9002    2.3107 C   0  0  0  0  0  0  0  0  0  0  0  0
    5.2955   -1.3873    0.8728 C   0  0  0  0  0  0  0  0  0  0  0  0
   -5.2435   -1.8582    1.6735 C   0  0  0  0  0  0  0  0  0  0  0  0
    5.8756    0.2830   -0.4345 C   0  0  0  0  0  0  0  0  0  0  0  0
   -3.7599    3.2546   -1.2483 C   0  0  0  0  0  0  0  0  0  0  0  0
    3.2697    1.9728    1.9521 C   0  0  0  0  0  0  0  0  0  0  0  0
   -3.1678    0.7698   -1.7226 H   0  0  0  0  0  0  0  0  0  0  0  0
   -1.1183    1.2443    0.3160 H   0  0  0  0  0  0  0  0  0  0  0  0
    0.7869    1.8371   -0.1506 H   0  0  0  0  0  0  0  0  0  0  0  0
    0.8687   -2.2260   -1.6356 H   0  0  0  0  0  0  0  0  0  0  0  0
    3.2484   -2.3666   -1.1011 H   0  0  0  0  0  0  0  0  0  0  0  0
   -3.1639    2.7424    0.6717 H   0  0  0  0  0  0  0  0  0  0  0  0
   -5.9073   -2.6518   -0.2160 H   0  0  0  0  0  0  0  0  0  0  0  0
   -4.4157   -0.8626    3.3953 H   0  0  0  0  0  0  0  0  0  0  0  0
    4.8541   -2.1763    1.4660 H   0  0  0  0  0  0  0  0  0  0  0  0
   -5.8189   -2.5666    2.2622 H   0  0  0  0  0  0  0  0  0  0  0  0
    5.8998    1.1129   -1.1268 H   0  0  0  0  0  0  0  0  0  0  0  0
   -3.9789    4.2774   -0.9615 H   0  0  0  0  0  0  0  0  0  0  0  0
   -3.9168    2.9722   -2.2834 H   0  0  0  0  0  0  0  0  0  0  0  0
    7.3484   -1.6463    1.4199 H   0  0  0  0  0  0  0  0  0  0  0  0
    3.8342    2.8612    2.2482 H   0  0  0  0  0  0  0  0  0  0  0  0
    3.7488    1.0929    2.3919 H   0  0  0  0  0  0  0  0  0  0  0  0
    2.2463    2.0683    2.3288 H   0  0  0  0  0  0  0  0  0  0  0  0
  1 19  1  0  0  0  0
  2 20  1  0  0  0  0
  3 13  1  0  0  0  0
  3 27  1  0  0  0  0
  4 12  2  0  0  0  0
  5  8  1  0  0  0  0
  5 12  1  0  0  0  0
  5 29  1  0  0  0  0
  6  7  1  0  0  0  0
  6 23  1  0  0  0  0
  6 41  1  0  0  0  0
  7 25  2  0  0  0  0
  8  9  1  0  0  0  0
  8 17  1  0  0  0  0
  8 28  1  0  0  0  0
  9 19  2  0  0  0  0
  9 20  1  0  0  0  0
 10 12  1  0  0  0  0
 10 14  2  0  0  0  0
 10 15  1  0  0  0  0
 11 13  2  0  0  0  0
 11 16  1  0  0  0  0
 11 18  1  0  0  0  0
 13 14  1  0  0  0  0
 14 30  1  0  0  0  0
 15 16  2  0  0  0  0
 15 31  1  0  0  0  0
 16 32  1  0  0  0  0
 17 26  2  0  0  0  0
 17 33  1  0  0  0  0
 18 23  2  0  0  0  0
 18 25  1  0  0  0  0
 19 21  1  0  0  0  0
 20 22  2  0  0  0  0
 21 24  2  0  0  0  0
 21 34  1  0  0  0  0
 22 24  1  0  0  0  0
 22 35  1  0  0  0  0
 23 36  1  0  0  0  0
 24 37  1  0  0  0  0
 25 38  1  0  0  0  0
 26 39  1  0  0  0  0
 26 40  1  0  0  0  0
 27 42  1  0  0  0  0
 27 43  1  0  0  0  0
 27 44  1  0  0  0  0
M  END
> <PUBCHEM_COMPOUND_CID>
118668482

> <PUBCHEM_CONFORMER_RMSD>
0.8

> <PUBCHEM_CONFORMER_DIVERSEORDER>
1
7
68
50
24
44
75
71
58
12
54
18
41
79
76
49
80
21
13
51
84
47
45
63
43
82
23
38
57
28
61
77
70
14
53
40
19
48
81
15
66
20
25
31
72
69
65
64
56
34
16
74
27
35
11
83
22
78
29
6
67
73
46
37
59
62
42
39
2
52
33
10
32
4
26
55
17
9
36
30
8
3
5
60

> <PUBCHEM_MMFF94_PARTIAL_CHARGES>
40
1 -0.19
10 0.09
11 0.05
12 0.54
13 0.08
14 -0.15
15 -0.15
16 -0.15
17 -0.29
18 -0.05
19 0.19
2 -0.19
20 0.19
21 -0.15
22 -0.15
23 -0.3
24 -0.15
25 0.14
26 -0.3
27 0.28
29 0.37
3 -0.36
30 0.15
31 0.15
32 0.15
33 0.15
34 0.15
35 0.15
36 0.15
37 0.15
38 0.15
39 0.15
4 -0.57
40 0.15
41 0.27
5 -0.73
6 0.3
7 -0.71
8 0.58
9 -0.14

> <PUBCHEM_EFFECTIVE_ROTOR_COUNT>
7

> <PUBCHEM_PHARMACOPHORE_FEATURES>
9
1 26 hydrophobe
1 3 acceptor
1 4 acceptor
1 5 donor
1 6 donor
1 7 acceptor
5 6 7 18 23 25 rings
6 10 11 13 14 15 16 rings
6 9 19 20 21 22 24 rings

> <PUBCHEM_HEAVY_ATOM_COUNT>
27

> <PUBCHEM_ATOM_DEF_STEREO_COUNT>
0

> <PUBCHEM_ATOM_UDEF_STEREO_COUNT>
1

> <PUBCHEM_BOND_DEF_STEREO_COUNT>
0

> <PUBCHEM_BOND_UDEF_STEREO_COUNT>
0

> <PUBCHEM_ISOTOPIC_ATOM_COUNT>
0

> <PUBCHEM_COMPONENT_COUNT>
1

> <PUBCHEM_CACTVS_TAUTO_COUNT>
9

> <PUBCHEM_CONFORMER_ID>
0712BCC200000001

> <PUBCHEM_MMFF94_ENERGY>
72.27

> <PUBCHEM_FEATURE_SELFOVERLAP>
45.671

> <PUBCHEM_SHAPE_FINGERPRINT>
105312 117 11167952342353354089
10675989 125 16472349072492337144
11315181 36 17530686510884089765
11545043 162 18334292050465850368
11646440 116 17346598578345224602
11796584 16 16081365258715538826
12507557 5 17917990555621045601
12596602 18 18342459223185020282
12616971 3 16200432502595767208
12633257 1 18201729491197918835
13583140 156 18341890753955711669
13690498 29 9222641398952945209
13782708 43 17749387028045887802
14341114 328 16988293078822462257
14844126 61 18187088347813756011
14849402 71 17488178382781280360
14950920 106 18200882884645719675
15081414 286 17489594424987450852
15183329 4 11602814726655397658
15188451 53 17894632577898011963
15238133 3 15769504209077591714
17349148 13 16443066118943243843
17844677 252 18333735723621206964
17980427 23 15123500433055397248
18222031 100 16660640795277409820
18927931 339 18261399944667288719
200 152 13190341270531076270
21033648 29 18270666615312174320
21623969 137 18261112963711712178
2303208 19 18271817765922295414
23198884 109 10375870754009087467
23559900 14 17385723659847592997
23569943 247 16342310030497185622
3004659 81 14707207768499666155
392239 28 17774730856595958619
4073 2 18114182986786217474
5104073 3 18269276759779290210
7495541 125 18113901576708796124
960060 61 12685083804694808706

> <PUBCHEM_SHAPE_MULTIPOLES>
514.42
15.99
2.34
1.86
13.59
1.51
0.55
-5.81
4.2
-2.94
0.18
-1.52
-0.19
1.55

> <PUBCHEM_SHAPE_SELFOVERLAP>
1120.971

> <PUBCHEM_SHAPE_VOLUME>
280.5

> <PUBCHEM_COORDINATE_TYPE>
2
5
10

$$$$
90354280
  -OEChem-05102415133D

 55 58  0     1  0  0  0  0  0999 V2000
   -0.9467   -0.7543    2.0735 O   0  0  0  0  0  0  0  0  0  0  0  0
    4.0300   -1.5616    1.4885 O   0  0  0  0  0  0  0  0  0  0  0  0
   -3.2470    2.3690   -0.2086 N   0  0  0  0  0  0  0  0  0  0  0  0
   -1.5589    0.0422   -0.0161 N   0  0  0  0  0  0  0  0  0  0  0  0
    6.6849    0.5265   -1.5775 N   0  0  0  0  0  0  0  0  0  0  0  0
    7.0958    0.8286   -0.3341 N   0  0  0  0  0  0  0  0  0  0  0  0
   -3.8272    2.8406    1.0484 C   0  0  0  0  0  0  0  0  0  0  0  0
   -3.5912    3.3939   -1.1938 C   0  0  0  0  0  0  0  0  0  0  0  0
   -3.5003    4.3265    1.0378 C   0  0  0  0  0  0  0  0  0  0  0  0
   -3.3487    4.6909   -0.4359 C   0  0  0  0  0  0  0  0  0  0  0  0
   -3.7342    1.0504   -0.5853 C   0  0  0  0  0  0  0  0  0  0  0  0
   -2.9890   -0.0549    0.1806 C   0  0  1  0  0  0  0  0  0  0  0  0
   -3.4904   -1.4332   -0.2018 C   0  0  0  0  0  0  0  0  0  0  0  0
   -4.5450   -2.0121    0.5041 C   0  0  0  0  0  0  0  0  0  0  0  0
   -2.8971   -2.1226   -1.2593 C   0  0  0  0  0  0  0  0  0  0  0  0
   -0.6496   -0.3217    0.9631 C   0  0  0  0  0  0  0  0  0  0  0  0
    0.7829   -0.1374    0.6154 C   0  0  0  0  0  0  0  0  0  0  0  0
   -5.0066   -3.2806    0.1523 C   0  0  0  0  0  0  0  0  0  0  0  0
   -3.3586   -3.3911   -1.6111 C   0  0  0  0  0  0  0  0  0  0  0  0
   -4.4135   -3.9700   -0.9055 C   0  0  0  0  0  0  0  0  0  0  0  0
    1.7551   -0.9382    1.2148 C   0  0  0  0  0  0  0  0  0  0  0  0
    1.1555    0.8357   -0.3121 C   0  0  0  0  0  0  0  0  0  0  0  0
    3.0999   -0.7660    0.8867 C   0  0  0  0  0  0  0  0  0  0  0  0
    3.4725    0.2070   -0.0408 C   0  0  0  0  0  0  0  0  0  0  0  0
    2.5002    1.0080   -0.6400 C   0  0  0  0  0  0  0  0  0  0  0  0
    4.8530    0.4002   -0.3948 C   0  0  0  0  0  0  0  0  0  0  0  0
    5.3500    0.2616   -1.6678 C   0  0  0  0  0  0  0  0  0  0  0  0
    5.9724    0.7499    0.3839 C   0  0  0  0  0  0  0  0  0  0  0  0
    4.3517   -2.7874    0.8354 C   0  0  0  0  0  0  0  0  0  0  0  0
   -3.3925    2.3478    1.9234 H   0  0  0  0  0  0  0  0  0  0  0  0
   -4.9160    2.7043    1.0749 H   0  0  0  0  0  0  0  0  0  0  0  0
   -4.6454    3.3298   -1.4926 H   0  0  0  0  0  0  0  0  0  0  0  0
   -2.9685    3.3305   -2.0917 H   0  0  0  0  0  0  0  0  0  0  0  0
   -4.2864    4.9145    1.5222 H   0  0  0  0  0  0  0  0  0  0  0  0
   -2.5598    4.5221    1.5663 H   0  0  0  0  0  0  0  0  0  0  0  0
   -4.0572    5.4694   -0.7361 H   0  0  0  0  0  0  0  0  0  0  0  0
   -2.3360    5.0675   -0.6223 H   0  0  0  0  0  0  0  0  0  0  0  0
   -3.5498    0.8968   -1.6584 H   0  0  0  0  0  0  0  0  0  0  0  0
   -4.8206    0.9616   -0.4504 H   0  0  0  0  0  0  0  0  0  0  0  0
   -3.1720    0.0716    1.2560 H   0  0  0  0  0  0  0  0  0  0  0  0
   -1.2371    0.3099   -0.9407 H   0  0  0  0  0  0  0  0  0  0  0  0
   -5.0170   -1.4844    1.3285 H   0  0  0  0  0  0  0  0  0  0  0  0
   -2.0852   -1.6923   -1.8387 H   0  0  0  0  0  0  0  0  0  0  0  0
   -5.8283   -3.7312    0.7013 H   0  0  0  0  0  0  0  0  0  0  0  0
   -2.8994   -3.9267   -2.4369 H   0  0  0  0  0  0  0  0  0  0  0  0
   -4.7735   -4.9572   -1.1802 H   0  0  0  0  0  0  0  0  0  0  0  0
    1.4757   -1.7023    1.9364 H   0  0  0  0  0  0  0  0  0  0  0  0
    0.4338    1.5007   -0.7775 H   0  0  0  0  0  0  0  0  0  0  0  0
    2.7698    1.7798   -1.3574 H   0  0  0  0  0  0  0  0  0  0  0  0
    4.8911    0.0029   -2.6121 H   0  0  0  0  0  0  0  0  0  0  0  0
    6.0205    0.9518    1.4448 H   0  0  0  0  0  0  0  0  0  0  0  0
    7.3717    0.5189   -2.3212 H   0  0  0  0  0  0  0  0  0  0  0  0
    5.1403   -3.2831    1.4082 H   0  0  0  0  0  0  0  0  0  0  0  0
    4.7184   -2.6087   -0.1799 H   0  0  0  0  0  0  0  0  0  0  0  0
    3.4764   -3.4441    0.8063 H   0  0  0  0  0  0  0  0  0  0  0  0
  1 16  2  0  0  0  0
  2 23  1  0  0  0  0
  2 29  1  0  0  0  0
  3  7  1  0  0  0  0
  3  8  1  0  0  0  0
  3 11  1  0  0  0  0
  4 12  1  0  0  0  0
  4 16  1  0  0  0  0
  4 41  1  0  0  0  0
  5  6  1  0  0  0  0
  5 27  1  0  0  0  0
  5 52  1  0  0  0  0
  6 28  2  0  0  0  0
  7  9  1  0  0  0  0
  7 30  1  0  0  0  0
  7 31  1  0  0  0  0
  8 10  1  0  0  0  0
  8 32  1  0  0  0  0
  8 33  1  0  0  0  0
  9 10  1  0  0  0  0
  9 34  1  0  0  0  0
  9 35  1  0  0  0  0
 10 36  1  0  0  0  0
 10 37  1  0  0  0  0
 11 12  1  0  0  0  0
 11 38  1  0  0  0  0
 11 39  1  0  0  0  0
 12 13  1  0  0  0  0
 12 40  1  0  0  0  0
 13 14  2  0  0  0  0
 13 15  1  0  0  0  0
 14 18  1  0  0  0  0
 14 42  1  0  0  0  0
 15 19  2  0  0  0  0
 15 43  1  0  0  0  0
 16 17  1  0  0  0  0
 17 21  2  0  0  0  0
 17 22  1  0  0  0  0
 18 20  2  0  0  0  0
 18 44  1  0  0  0  0
 19 20  1  0  0  0  0
 19 45  1  0  0  0  0
 20 46  1  0  0  0  0
 21 23  1  0  0  0  0
 21 47  1  0  0  0  0
 22 25  2  0  0  0  0
 22 48  1  0  0  0  0
 23 24  2  0  0  0  0
 24 25  1  0  0  0  0
 24 26  1  0  0  0  0
 25 49  1  0  0  0  0
 26 27  2  0  0  0  0
 26 28  1  0  0  0  0
 27 50  1  0  0  0  0
 28 51  1  0  0  0  0
 29 53  1  0  0  0  0
 29 54  1  0  0  0  0
 29 55  1  0  0  0  0
M  END
> <PUBCHEM_COMPOUND_CID>
90354280

> <PUBCHEM_CONFORMER_RMSD>
1

> <PUBCHEM_CONFORMER_DIVERSEORDER>
3
9
42
43
37
34
13
23
26
17
27
6
38
40
25
4
8
35
18
22
15
31
30
32
5
29
12
16
39
36
19
11
28
33
24
1
20
21
14
10
41
7
2

> <PUBCHEM_MMFF94_PARTIAL_CHARGES>
39
1 -0.57
11 0.27
12 0.44
13 -0.14
14 -0.15
15 -0.15
16 0.54
17 0.09
18 -0.15
19 -0.15
2 -0.36
20 -0.15
21 -0.15
22 -0.15
23 0.08
24 0.05
25 -0.15
26 -0.05
27 -0.3
28 0.14
29 0.28
3 -0.81
4 -0.73
41 0.37
42 0.15
43 0.15
44 0.15
45 0.15
46 0.15
47 0.15
48 0.15
49 0.15
5 0.3
50 0.15
51 0.15
52 0.27
6 -0.71
7 0.27
8 0.27

> <PUBCHEM_EFFECTIVE_ROTOR_COUNT>
9

> <PUBCHEM_PHARMACOPHORE_FEATURES>
10
1 1 acceptor
1 2 acceptor
1 3 cation
1 4 donor
1 5 donor
1 6 acceptor
5 3 7 8 9 10 rings
5 5 6 26 27 28 rings
6 13 14 15 18 19 20 rings
6 17 21 22 23 24 25 rings

> <PUBCHEM_HEAVY_ATOM_COUNT>
29

> <PUBCHEM_ATOM_DEF_STEREO_COUNT>
0

> <PUBCHEM_ATOM_UDEF_STEREO_COUNT>
1

> <PUBCHEM_BOND_DEF_STEREO_COUNT>
0

> <PUBCHEM_BOND_UDEF_STEREO_COUNT>
0

> <PUBCHEM_ISOTOPIC_ATOM_COUNT>
0

> <PUBCHEM_COMPONENT_COUNT>
1

> <PUBCHEM_CACTVS_TAUTO_COUNT>
7

> <PUBCHEM_CONFORMER_ID>
0562B26800000003

> <PUBCHEM_MMFF94_ENERGY>
79.4803

> <PUBCHEM_FEATURE_SELFOVERLAP>
50.747

> <PUBCHEM_SHAPE_FINGERPRINT>
10369192 42 16553099933702906288
10595046 47 18334011709713810282
11049842 53 17766259995572005467
11056379 131 18413110575968082927
11101153 10 18191311691666208292
11315621 246 18200315549114425367
11477941 20 18338514265168678397
11763715 3 18191881221777772941
12107183 9 17902785267697380834
12788726 201 18335976554125328619
13540713 5 17968927600905026490
13583140 156 17702360953736685058
13673619 4 17845096349399139307
13690498 29 18271807972747883774
14068700 675 18189614024311250277
14118638 360 18333450924075727082
14294032 229 18340493275289199441
14347332 77 18338516447048370535
14713325 29 18341619204975437079
15064981 113 18055337055458097829
15439362 3 17838057000784512517
15876981 60 18334863852410419997
16087824 20 18410291395029181293
16992828 155 17677609761622300797
20101258 96 18338802346469254161
20771845 65 17698728335793077827
21033650 10 18263948595361210166
21120745 212 18337675312749190781
21304303 172 18201162157200804475
21796203 349 17757866650745570939
22393880 68 18343581858985055162
25147074 1 18040707040086499314
255183 451 17839454837300575815
32027 91 17699584545744595198
3388396 114 17755600573606324749
3610482 184 17968960629224566724
44249763 50 18342728616340034240
484985 159 14979950402730418757
497634 4 18186515506017889351
5104073 3 17822576002094381720
5219985 13 17977380539189585669
531348 171 18339366262447691670
6058803 2 18043233674378057563
633830 44 17531528664030002786
6700243 42 17842592709492683668
6898599 12 18336826403356601253

> <PUBCHEM_SHAPE_MULTIPOLES>
565.14
15.34
5.3
1.47
22.96
3.05
-0.02
-1.21
-3.54
-13.15
-0.69
0.47
-0.27
-2.22

> <PUBCHEM_SHAPE_SELFOVERLAP>
1221.698

> <PUBCHEM_SHAPE_VOLUME>
312.1

> <PUBCHEM_COORDINATE_TYPE>
2
5
10

$$$$
90354138
  -OEChem-05102415133D

 43 45  0     0  0  0  0  0  0999 V2000
    2.9071   -1.6932   -1.2725 F   0  0  0  0  0  0  0  0  0  0  0  0
    4.6856    2.3749    0.3967 F   0  0  0  0  0  0  0  0  0  0  0  0
   -2.6923   -1.8616   -0.4226 O   0  0  0  0  0  0  0  0  0  0  0  0
    1.1184    2.5840    0.3266 O   0  0  0  0  0  0  0  0  0  0  0  0
    1.4918    0.8494   -1.1664 N   0  0  0  0  0  0  0  0  0  0  0  0
   -6.8931   -0.1247   -0.0344 N   0  0  0  0  0  0  0  0  0  0  0  0
   -6.6679   -1.0054    0.9554 N   0  0  0  0  0  0  0  0  0  0  0  0
    2.8920    1.1241   -1.3959 C   0  0  0  0  0  0  0  0  0  0  0  0
    3.7767    0.3550   -0.4577 C   0  0  0  0  0  0  0  0  0  0  0  0
   -3.3574    0.3850    0.1141 C   0  0  0  0  0  0  0  0  0  0  0  0
   -0.7002    1.1880   -0.1653 C   0  0  0  0  0  0  0  0  0  0  0  0
   -2.3781   -0.5496   -0.2230 C   0  0  0  0  0  0  0  0  0  0  0  0
   -1.0496   -0.1480   -0.3627 C   0  0  0  0  0  0  0  0  0  0  0  0
    3.7364   -1.0392   -0.4458 C   0  0  0  0  0  0  0  0  0  0  0  0
    0.6850    1.6066   -0.3091 C   0  0  0  0  0  0  0  0  0  0  0  0
   -3.0081    1.7210    0.3111 C   0  0  0  0  0  0  0  0  0  0  0  0
    4.5588   -1.7532    0.4259 C   0  0  0  0  0  0  0  0  0  0  0  0
   -1.6796    2.1225    0.1717 C   0  0  0  0  0  0  0  0  0  0  0  0
   -4.7327   -0.0078    0.2648 C   0  0  0  0  0  0  0  0  0  0  0  0
    4.6393    1.0355    0.4017 C   0  0  0  0  0  0  0  0  0  0  0  0
    5.4213   -1.0727    1.2857 C   0  0  0  0  0  0  0  0  0  0  0  0
    5.4617    0.3215    1.2734 C   0  0  0  0  0  0  0  0  0  0  0  0
    4.5186   -3.2440    0.4413 C   0  0  0  0  0  0  0  0  0  0  0  0
   -5.7667    0.4998   -0.4834 C   0  0  0  0  0  0  0  0  0  0  0  0
   -5.3464   -0.9297    1.1338 C   0  0  0  0  0  0  0  0  0  0  0  0
   -1.6208   -2.7381   -0.7636 C   0  0  0  0  0  0  0  0  0  0  0  0
    3.0576    2.2037   -1.3132 H   0  0  0  0  0  0  0  0  0  0  0  0
    3.1214    0.8391   -2.4290 H   0  0  0  0  0  0  0  0  0  0  0  0
    1.0903    0.0924   -1.7092 H   0  0  0  0  0  0  0  0  0  0  0  0
   -0.2585   -0.8545   -0.5785 H   0  0  0  0  0  0  0  0  0  0  0  0
   -3.7546    2.4656    0.5781 H   0  0  0  0  0  0  0  0  0  0  0  0
   -1.4280    3.1685    0.3265 H   0  0  0  0  0  0  0  0  0  0  0  0
    6.0685   -1.6150    1.9698 H   0  0  0  0  0  0  0  0  0  0  0  0
    6.1334    0.8516    1.9422 H   0  0  0  0  0  0  0  0  0  0  0  0
    3.4903   -3.5965    0.5739 H   0  0  0  0  0  0  0  0  0  0  0  0
    4.9136   -3.6415   -0.4992 H   0  0  0  0  0  0  0  0  0  0  0  0
    5.1150   -3.6601    1.2602 H   0  0  0  0  0  0  0  0  0  0  0  0
   -5.8089    1.2310   -1.2788 H   0  0  0  0  0  0  0  0  0  0  0  0
   -4.8896   -1.5509    1.8915 H   0  0  0  0  0  0  0  0  0  0  0  0
   -7.8443    0.0015   -0.3572 H   0  0  0  0  0  0  0  0  0  0  0  0
   -1.1613   -2.4669   -1.7204 H   0  0  0  0  0  0  0  0  0  0  0  0
   -0.8898   -2.8201    0.0482 H   0  0  0  0  0  0  0  0  0  0  0  0
   -2.0539   -3.7353   -0.8961 H   0  0  0  0  0  0  0  0  0  0  0  0
  1 14  1  0  0  0  0
  2 20  1  0  0  0  0
  3 12  1  0  0  0  0
  3 26  1  0  0  0  0
  4 15  2  0  0  0  0
  5  8  1  0  0  0  0
  5 15  1  0  0  0  0
  5 29  1  0  0  0  0
  6  7  1  0  0  0  0
  6 24  1  0  0  0  0
  6 40  1  0  0  0  0
  7 25  2  0  0  0  0
  8  9  1  0  0  0  0
  8 27  1  0  0  0  0
  8 28  1  0  0  0  0
  9 14  1  0  0  0  0
  9 20  2  0  0  0  0
 10 12  2  0  0  0  0
 10 16  1  0  0  0  0
 10 19  1  0  0  0  0
 11 13  2  0  0  0  0
 11 15  1  0  0  0  0
 11 18  1  0  0  0  0
 12 13  1  0  0  0  0
 13 30  1  0  0  0  0
 14 17  2  0  0  0  0
 16 18  2  0  0  0  0
 16 31  1  0  0  0  0
 17 21  1  0  0  0  0
 17 23  1  0  0  0  0
 18 32  1  0  0  0  0
 19 24  2  0  0  0  0
 19 25  1  0  0  0  0
 20 22  1  0  0  0  0
 21 22  2  0  0  0  0
 21 33  1  0  0  0  0
 22 34  1  0  0  0  0
 23 35  1  0  0  0  0
 23 36  1  0  0  0  0
 23 37  1  0  0  0  0
 24 38  1  0  0  0  0
 25 39  1  0  0  0  0
 26 41  1  0  0  0  0
 26 42  1  0  0  0  0
 26 43  1  0  0  0  0
M  END
> <PUBCHEM_COMPOUND_CID>
90354138

> <PUBCHEM_CONFORMER_RMSD>
0.8

> <PUBCHEM_CONFORMER_DIVERSEORDER>
12
31
93
60
74
82
55
76
65
50
21
79
58
5
70
26
86
6
78
90
67
16
46
54
73
59
14
91
81
64
34
36
92
43
23
15
85
44
52
25
71
18
75
89
35
42
9
84
57
33
37
30
66
2
20
69
19
22
77
51
41
48
10
49
32
63
83
24
87
47
94
80
61
39
62
38
88
29
1
45
8
3
53
40
7
72
68
4
56
27
17
11
28
13

> <PUBCHEM_MMFF94_PARTIAL_CHARGES>
35
1 -0.19
10 0.05
11 0.09
12 0.08
13 -0.15
14 0.19
15 0.54
16 -0.15
17 -0.14
18 -0.15
19 -0.05
2 -0.19
20 0.19
21 -0.15
22 -0.15
23 0.14
24 -0.3
25 0.14
26 0.28
29 0.37
3 -0.36
30 0.15
31 0.15
32 0.15
33 0.15
34 0.15
38 0.15
39 0.15
4 -0.57
40 0.27
5 -0.73
6 0.3
7 -0.71
8 0.44
9 -0.14

> <PUBCHEM_EFFECTIVE_ROTOR_COUNT>
6

> <PUBCHEM_PHARMACOPHORE_FEATURES>
8
1 3 acceptor
1 4 acceptor
1 5 donor
1 6 donor
1 7 acceptor
5 6 7 19 24 25 rings
6 10 11 12 13 16 18 rings
6 9 14 17 20 21 22 rings

> <PUBCHEM_HEAVY_ATOM_COUNT>
26

> <PUBCHEM_ATOM_DEF_STEREO_COUNT>
0

> <PUBCHEM_ATOM_UDEF_STEREO_COUNT>
0

> <PUBCHEM_BOND_DEF_STEREO_COUNT>
0

> <PUBCHEM_BOND_UDEF_STEREO_COUNT>
0

> <PUBCHEM_ISOTOPIC_ATOM_COUNT>
0

> <PUBCHEM_COMPONENT_COUNT>
1

> <PUBCHEM_CACTVS_TAUTO_COUNT>
7

> <PUBCHEM_CONFORMER_ID>
0562B1DA0000000C

> <PUBCHEM_MMFF94_ENERGY>
69.301

> <PUBCHEM_FEATURE_SELFOVERLAP>
40.597

> <PUBCHEM_SHAPE_FINGERPRINT>
11756154 67 18120377558357818990
11796584 16 17313104180923496977
12107183 9 17908427952839435848
12236239 1 18040152924707102289
12788726 201 17703522029378534169
13073987 5 18412827962709371153
13533116 47 18410012126473151008
13551218 46 18410012117873004595
13782708 43 17313673749896372499
13862211 1 18412826906822058375
14211702 104 18114192959927425083
14251740 57 18338240354235751086
14341114 176 18272366443904723634
14528608 73 10015862072225255537
14617045 38 18412269458304933758
15183329 4 16008745793161829381
15419008 42 17972585603376782991
17492 89 18193555571928918938
17857418 61 18412825806872600077
1813 80 17458348528696936284
1979834 28 17989213620418030934
208703 8 17534326869931842994
21267235 1 18411143502732470814
21279426 13 18261671455330311797
21424621 283 14692032245295669235
21682296 61 18337397015689881771
21792934 111 18341043017869857017
21859007 373 17896584125423156717
23559900 14 18199185264114635800
3004659 81 18187374224604476500
3383291 50 18407761439262666315
3472631 163 9727340342803947576
3680242 22 18339089206870899011
5104073 3 18271249309251146889
5718773 13 17823127922819920922
6823239 73 17988659471479911598
8988823 20 18342736338617223312

> <PUBCHEM_SHAPE_MULTIPOLES>
493.84
16.16
2.8
1.08
9.29
0.89
-0.01
4.98
4.97
-2.4
-0.02
-0.67
0.13
-0.07

> <PUBCHEM_SHAPE_SELFOVERLAP>
1079.966

> <PUBCHEM_SHAPE_VOLUME>
269.4

> <PUBCHEM_COORDINATE_TYPE>
2
5
10

$$$$
85470507
  -OEChem-05102415133D

 44 46  0     0  0  0  0  0  0999 V2000
   -7.2801    1.6402    1.0418 F   0  0  0  0  0  0  0  0  0  0  0  0
   -6.1165    3.1752    0.0324 F   0  0  0  0  0  0  0  0  0  0  0  0
    3.5666    2.1847   -0.3717 O   0  0  0  0  0  0  0  0  0  0  0  0
   -5.5889    1.0251   -0.3327 O   0  0  0  0  0  0  0  0  0  0  0  0
   -0.6357   -0.0493   -2.1356 O   0  0  0  0  0  0  0  0  0  0  0  0
   -0.7714   -1.9476   -0.8109 N   0  0  0  0  0  0  0  0  0  0  0  0
    6.9781    0.0412    1.7677 N   0  0  0  0  0  0  0  0  0  0  0  0
    7.4249    0.5851    0.6228 N   0  0  0  0  0  0  0  0  0  0  0  0
    3.8651   -0.1677    0.0216 C   0  0  0  0  0  0  0  0  0  0  0  0
    1.2530   -0.5982   -0.8589 C   0  0  0  0  0  0  0  0  0  0  0  0
   -2.1169   -2.3185   -1.1864 C   0  0  0  0  0  0  0  0  0  0  0  0
    3.0810    0.9104   -0.3893 C   0  0  0  0  0  0  0  0  0  0  0  0
   -3.1436   -1.6957   -0.2851 C   0  0  0  0  0  0  0  0  0  0  0  0
    1.7749    0.6951   -0.8295 C   0  0  0  0  0  0  0  0  0  0  0  0
    5.2133    0.0319    0.4806 C   0  0  0  0  0  0  0  0  0  0  0  0
    3.3432   -1.4610   -0.0082 C   0  0  0  0  0  0  0  0  0  0  0  0
    2.0372   -1.6763   -0.4481 C   0  0  0  0  0  0  0  0  0  0  0  0
   -0.1091   -0.8227   -1.3161 C   0  0  0  0  0  0  0  0  0  0  0  0
   -3.8992   -0.6120   -0.7329 C   0  0  0  0  0  0  0  0  0  0  0  0
   -3.3414   -2.2002    1.0003 C   0  0  0  0  0  0  0  0  0  0  0  0
   -4.8527   -0.0329    0.1044 C   0  0  0  0  0  0  0  0  0  0  0  0
    5.6598   -0.3075    1.7345 C   0  0  0  0  0  0  0  0  0  0  0  0
    6.3424    0.5768   -0.1596 C   0  0  0  0  0  0  0  0  0  0  0  0
   -4.2947   -1.6209    1.8378 C   0  0  0  0  0  0  0  0  0  0  0  0
   -5.0506   -0.5375    1.3899 C   0  0  0  0  0  0  0  0  0  0  0  0
    2.6874    3.2175   -0.8109 C   0  0  0  0  0  0  0  0  0  0  0  0
   -6.0262    1.9649    0.6419 C   0  0  0  0  0  0  0  0  0  0  0  0
   -2.1869   -3.4110   -1.1350 H   0  0  0  0  0  0  0  0  0  0  0  0
   -2.2897   -2.0354   -2.2312 H   0  0  0  0  0  0  0  0  0  0  0  0
    1.1188    1.4956   -1.1533 H   0  0  0  0  0  0  0  0  0  0  0  0
    3.9409   -2.3169    0.2973 H   0  0  0  0  0  0  0  0  0  0  0  0
    1.6810   -2.7016   -0.4845 H   0  0  0  0  0  0  0  0  0  0  0  0
   -0.3313   -2.5167   -0.0955 H   0  0  0  0  0  0  0  0  0  0  0  0
   -3.7497   -0.2116   -1.7327 H   0  0  0  0  0  0  0  0  0  0  0  0
   -2.7595   -3.0448    1.3597 H   0  0  0  0  0  0  0  0  0  0  0  0
    5.1752   -0.7541    2.5918 H   0  0  0  0  0  0  0  0  0  0  0  0
    6.4260    0.9687   -1.1636 H   0  0  0  0  0  0  0  0  0  0  0  0
   -4.4525   -2.0179    2.8364 H   0  0  0  0  0  0  0  0  0  0  0  0
   -5.8004   -0.1322    2.0626 H   0  0  0  0  0  0  0  0  0  0  0  0
    7.6294   -0.0629    2.5357 H   0  0  0  0  0  0  0  0  0  0  0  0
    1.8115    3.3089   -0.1594 H   0  0  0  0  0  0  0  0  0  0  0  0
    2.4174    3.0992   -1.8659 H   0  0  0  0  0  0  0  0  0  0  0  0
    3.2375    4.1612   -0.7316 H   0  0  0  0  0  0  0  0  0  0  0  0
   -5.3582    2.0736    1.5036 H   0  0  0  0  0  0  0  0  0  0  0  0
  1 27  1  0  0  0  0
  2 27  1  0  0  0  0
  3 12  1  0  0  0  0
  3 26  1  0  0  0  0
  4 21  1  0  0  0  0
  4 27  1  0  0  0  0
  5 18  2  0  0  0  0
  6 11  1  0  0  0  0
  6 18  1  0  0  0  0
  6 33  1  0  0  0  0
  7  8  1  0  0  0  0
  7 22  1  0  0  0  0
  7 40  1  0  0  0  0
  8 23  2  0  0  0  0
  9 12  2  0  0  0  0
  9 15  1  0  0  0  0
  9 16  1  0  0  0  0
 10 14  2  0  0  0  0
 10 17  1  0  0  0  0
 10 18  1  0  0  0  0
 11 13  1  0  0  0  0
 11 28  1  0  0  0  0
 11 29  1  0  0  0  0
 12 14  1  0  0  0  0
 13 19  2  0  0  0  0
 13 20  1  0  0  0  0
 14 30  1  0  0  0  0
 15 22  2  0  0  0  0
 15 23  1  0  0  0  0
 16 17  2  0  0  0  0
 16 31  1  0  0  0  0
 17 32  1  0  0  0  0
 19 21  1  0  0  0  0
 19 34  1  0  0  0  0
 20 24  2  0  0  0  0
 20 35  1  0  0  0  0
 21 25  2  0  0  0  0
 22 36  1  0  0  0  0
 23 37  1  0  0  0  0
 24 25  1  0  0  0  0
 24 38  1  0  0  0  0
 25 39  1  0  0  0  0
 26 41  1  0  0  0  0
 26 42  1  0  0  0  0
 26 43  1  0  0  0  0
 27 44  1  0  0  0  0
M  END
> <PUBCHEM_COMPOUND_CID>
85470507

> <PUBCHEM_CONFORMER_RMSD>
1

> <PUBCHEM_CONFORMER_DIVERSEORDER>
14
38
49
17
32
3
27
41
34
2
48
43
6
35
10
9
42
37
28
15
30
20
45
19
12
44
16
11
18
51
36
23
31
26
52
5
47
33
4
39
50
22
13
1
7
25
46
8
40
29
24
21

> <PUBCHEM_MMFF94_PARTIAL_CHARGES>
38
1 -0.34
10 0.09
11 0.44
12 0.08
13 -0.14
14 -0.15
15 -0.05
16 -0.15
17 -0.15
18 0.54
19 -0.15
2 -0.34
20 -0.15
21 0.08
22 -0.3
23 0.14
24 -0.15
25 -0.15
26 0.28
27 0.96
3 -0.36
30 0.15
31 0.15
32 0.15
33 0.37
34 0.15
35 0.15
36 0.15
37 0.15
38 0.15
39 0.15
4 -0.36
40 0.27
5 -0.57
6 -0.73
7 0.3
8 -0.71
9 0.05

> <PUBCHEM_EFFECTIVE_ROTOR_COUNT>
8

> <PUBCHEM_PHARMACOPHORE_FEATURES>
9
1 3 acceptor
1 4 acceptor
1 5 acceptor
1 6 donor
1 7 donor
1 8 acceptor
5 7 8 15 22 23 rings
6 13 19 20 21 24 25 rings
6 9 10 12 14 16 17 rings

> <PUBCHEM_HEAVY_ATOM_COUNT>
27

> <PUBCHEM_ATOM_DEF_STEREO_COUNT>
0

> <PUBCHEM_ATOM_UDEF_STEREO_COUNT>
0

> <PUBCHEM_BOND_DEF_STEREO_COUNT>
0

> <PUBCHEM_BOND_UDEF_STEREO_COUNT>
0

> <PUBCHEM_ISOTOPIC_ATOM_COUNT>
0

> <PUBCHEM_COMPONENT_COUNT>
1

> <PUBCHEM_CACTVS_TAUTO_COUNT>
9

> <PUBCHEM_CONFORMER_ID>
05182D2B0000000E

> <PUBCHEM_MMFF94_ENERGY>
80.7549

> <PUBCHEM_FEATURE_SELFOVERLAP>
45.673

> <PUBCHEM_SHAPE_FINGERPRINT>
10554248 39 14548748309347922932
10693767 8 8501836803785328336
10906281 52 18260554467839603302
10928967 22 12613038365789206673
11146851 88 18342176657413814137
11370993 144 18333733503144032063
11545043 162 16370989841666002134
12107183 9 18335135397211108138
12403259 118 18341612671945499951
12422481 6 18341889723374823596
12633257 1 18336260266785301006
13103583 49 17530966903724597123
13560911 23 18187919646638139955
13631057 29 8358260345281176927
13668630 136 12107786293872323176
13673619 4 11241978075116348287
13690498 29 10735876150180075755
13782708 43 14418671660033915624
13941219 33 17023178305996458035
14576447 43 8718835284048536286
14767858 380 9943807807177255084
14849402 71 17970632011870049796
14931854 50 10159699067181029497
14950920 106 17895478149642272091
15142383 8 18259978267584694860
15238133 3 18411706512762622052
15348495 7 17968099780007113675
15461852 350 17131547348866566991
15475509 8 18270978920623757188
16993427 108 17537172707047135307
17780758 139 17530681030912241955
18643901 69 9223226356908738859
20511986 3 17846770793627972743
20715895 44 18269561542387227177
21033648 29 18341625789134428527
21054139 6 9439409042816394700
21150785 3 9583515447905975258
21196832 93 9871451141297275541
21298829 104 17988929921001695353
21403212 168 17385721358446443015
22122407 14 18341620347284166489
22288116 15 12319448922323259405
23522609 53 17750533904366893180
23559900 14 17559421156665975150
2838139 119 18131345337051883277
312425 54 17458344177620388499
33382 64 15864337031650497234
3737641 26 16009293315460972362
439807 62 9799691485520521201
5104073 3 18041560363766816648
7226269 152 17917996104708087050
7495541 125 17458617974102973870
9981440 41 18412269415878189091
999808 66 13118284759072755345

> <PUBCHEM_SHAPE_MULTIPOLES>
508.55
19.41
2.75
1.54
1.08
1.85
0.24
8.84
10.31
-3.34
-0.26
-0.07
-0.43
-0.73

> <PUBCHEM_SHAPE_SELFOVERLAP>
1103.895

> <PUBCHEM_SHAPE_VOLUME>
279.2

> <PUBCHEM_COORDINATE_TYPE>
2
5
10

$$$$
118662891
  -OEChem-05102415133D

 43 45  0     1  0  0  0  0  0999 V2000
    4.8096    1.1368   -1.8069 F   0  0  0  0  0  0  0  0  0  0  0  0
    3.1228   -1.1931    1.9701 F   0  0  0  0  0  0  0  0  0  0  0  0
   -2.4922   -1.8543   -0.5284 O   0  0  0  0  0  0  0  0  0  0  0  0
    0.9390    2.9542   -0.3241 O   0  0  0  0  0  0  0  0  0  0  0  0
    1.6695    0.8549    0.3365 N   0  0  0  0  0  0  0  0  0  0  0  0
   -6.7299   -0.5234    0.5109 N   0  0  0  0  0  0  0  0  0  0  0  0
   -6.6926   -0.9925   -0.7479 N   0  0  0  0  0  0  0  0  0  0  0  0
    3.0727    1.1882    0.4325 C   0  0  2  0  0  0  0  0  0  0  0  0
    3.9452    0.0000    0.0892 C   0  0  0  0  0  0  0  0  0  0  0  0
    3.3945    1.7714    1.8069 C   0  0  0  0  0  0  0  0  0  0  0  0
   -0.6909    1.2884   -0.0659 C   0  0  0  0  0  0  0  0  0  0  0  0
    0.6806    1.7710   -0.0404 C   0  0  0  0  0  0  0  0  0  0  0  0
   -3.3223    0.3626   -0.1111 C   0  0  0  0  0  0  0  0  0  0  0  0
   -2.2664   -0.5272   -0.3093 C   0  0  0  0  0  0  0  0  0  0  0  0
    4.7762    0.0452   -1.0302 C   0  0  0  0  0  0  0  0  0  0  0  0
    3.9176   -1.1404    0.8921 C   0  0  0  0  0  0  0  0  0  0  0  0
   -0.9507   -0.0642   -0.2867 C   0  0  0  0  0  0  0  0  0  0  0  0
   -1.7469    2.1782    0.1323 C   0  0  0  0  0  0  0  0  0  0  0  0
   -3.0625    1.7153    0.1094 C   0  0  0  0  0  0  0  0  0  0  0  0
   -4.6861   -0.0937   -0.1288 C   0  0  0  0  0  0  0  0  0  0  0  0
    5.5799   -1.0501   -1.3468 C   0  0  0  0  0  0  0  0  0  0  0  0
    4.7214   -2.2358    0.5754 C   0  0  0  0  0  0  0  0  0  0  0  0
    5.5526   -2.1904   -0.5439 C   0  0  0  0  0  0  0  0  0  0  0  0
   -5.5534    0.0250    0.9298 C   0  0  0  0  0  0  0  0  0  0  0  0
   -5.4417   -0.7273   -1.1334 C   0  0  0  0  0  0  0  0  0  0  0  0
   -2.5460   -2.6987    0.6189 C   0  0  0  0  0  0  0  0  0  0  0  0
    3.2613    1.9867   -0.2959 H   0  0  0  0  0  0  0  0  0  0  0  0
    1.3960   -0.0693    0.6541 H   0  0  0  0  0  0  0  0  0  0  0  0
    3.1326    1.0889    2.6222 H   0  0  0  0  0  0  0  0  0  0  0  0
    2.8302    2.6958    1.9750 H   0  0  0  0  0  0  0  0  0  0  0  0
    4.4604    2.0090    1.8947 H   0  0  0  0  0  0  0  0  0  0  0  0
   -0.1545   -0.7791   -0.4760 H   0  0  0  0  0  0  0  0  0  0  0  0
   -1.5656    3.2351    0.3097 H   0  0  0  0  0  0  0  0  0  0  0  0
   -3.8705    2.4269    0.2629 H   0  0  0  0  0  0  0  0  0  0  0  0
    6.2270   -1.0146   -2.2182 H   0  0  0  0  0  0  0  0  0  0  0  0
    4.6999   -3.1235    1.2006 H   0  0  0  0  0  0  0  0  0  0  0  0
    6.1785   -3.0431   -0.7904 H   0  0  0  0  0  0  0  0  0  0  0  0
   -5.4482    0.4377    1.9237 H   0  0  0  0  0  0  0  0  0  0  0  0
   -5.1368   -1.0080   -2.1319 H   0  0  0  0  0  0  0  0  0  0  0  0
   -7.5946   -0.6106    1.0301 H   0  0  0  0  0  0  0  0  0  0  0  0
   -2.7816   -3.7133    0.2859 H   0  0  0  0  0  0  0  0  0  0  0  0
   -3.3250   -2.3705    1.3139 H   0  0  0  0  0  0  0  0  0  0  0  0
   -1.5758   -2.7144    1.1256 H   0  0  0  0  0  0  0  0  0  0  0  0
  1 15  1  0  0  0  0
  2 16  1  0  0  0  0
  3 14  1  0  0  0  0
  3 26  1  0  0  0  0
  4 12  2  0  0  0  0
  5  8  1  0  0  0  0
  5 12  1  0  0  0  0
  5 28  1  0  0  0  0
  6  7  1  0  0  0  0
  6 24  1  0  0  0  0
  6 40  1  0  0  0  0
  7 25  2  0  0  0  0
  8  9  1  0  0  0  0
  8 10  1  0  0  0  0
  8 27  1  0  0  0  0
  9 15  2  0  0  0  0
  9 16  1  0  0  0  0
 10 29  1  0  0  0  0
 10 30  1  0  0  0  0
 10 31  1  0  0  0  0
 11 12  1  0  0  0  0
 11 17  2  0  0  0  0
 11 18  1  0  0  0  0
 13 14  2  0  0  0  0
 13 19  1  0  0  0  0
 13 20  1  0  0  0  0
 14 17  1  0  0  0  0
 15 21  1  0  0  0  0
 16 22  2  0  0  0  0
 17 32  1  0  0  0  0
 18 19  2  0  0  0  0
 18 33  1  0  0  0  0
 19 34  1  0  0  0  0
 20 24  2  0  0  0  0
 20 25  1  0  0  0  0
 21 23  2  0  0  0  0
 21 35  1  0  0  0  0
 22 23  1  0  0  0  0
 22 36  1  0  0  0  0
 23 37  1  0  0  0  0
 24 38  1  0  0  0  0
 25 39  1  0  0  0  0
 26 41  1  0  0  0  0
 26 42  1  0  0  0  0
 26 43  1  0  0  0  0
M  END
> <PUBCHEM_COMPOUND_CID>
118662891

> <PUBCHEM_CONFORMER_RMSD>
0.8

> <PUBCHEM_CONFORMER_DIVERSEORDER>
1
23
24
50
15
44
43
28
31
42
27
47
33
13
22
46
48
35
37
9
10
40
14
5
29
25
17
20
26
41
11
49
32
12
39
16
4
3
45
36
2
6
19
34
21
7
8
38
30
18

> <PUBCHEM_MMFF94_PARTIAL_CHARGES>
35
1 -0.19
11 0.09
12 0.54
13 0.05
14 0.08
15 0.19
16 0.19
17 -0.15
18 -0.15
19 -0.15
2 -0.19
20 -0.05
21 -0.15
22 -0.15
23 -0.15
24 -0.3
25 0.14
26 0.28
28 0.37
3 -0.36
32 0.15
33 0.15
34 0.15
35 0.15
36 0.15
37 0.15
38 0.15
39 0.15
4 -0.57
40 0.27
5 -0.73
6 0.3
7 -0.71
8 0.44
9 -0.14

> <PUBCHEM_EFFECTIVE_ROTOR_COUNT>
6

> <PUBCHEM_PHARMACOPHORE_FEATURES>
8
1 3 acceptor
1 4 acceptor
1 5 donor
1 6 donor
1 7 acceptor
5 6 7 20 24 25 rings
6 11 13 14 17 18 19 rings
6 9 15 16 21 22 23 rings

> <PUBCHEM_HEAVY_ATOM_COUNT>
26

> <PUBCHEM_ATOM_DEF_STEREO_COUNT>
0

> <PUBCHEM_ATOM_UDEF_STEREO_COUNT>
1

> <PUBCHEM_BOND_DEF_STEREO_COUNT>
0

> <PUBCHEM_BOND_UDEF_STEREO_COUNT>
0

> <PUBCHEM_ISOTOPIC_ATOM_COUNT>
0

> <PUBCHEM_COMPONENT_COUNT>
1

> <PUBCHEM_CACTVS_TAUTO_COUNT>
9

> <PUBCHEM_CONFORMER_ID>
0712A6EB00000001

> <PUBCHEM_MMFF94_ENERGY>
71.5244

> <PUBCHEM_FEATURE_SELFOVERLAP>
40.597

> <PUBCHEM_SHAPE_FINGERPRINT>
10319926 262 16200159759519619321
10622 236 17390212738449362890
117089 54 18055081952109137766
11991303 11 17608082066963009669
12166972 35 18060140963873813521
12422481 6 17132397228790196141
12516196 113 18202844357539415360
12553582 1 18336254687300484216
12760667 363 18342177747991816687
12788726 201 18339645546721959081
13402501 40 18271528606874714446
13533116 47 18202279242579644209
13551218 46 18343017787955602783
13685833 64 18272651234073940760
13782708 43 17489582390220263535
13862211 1 18342172276562223415
14211702 104 18198057187366288559
14347332 77 18411698747166741389
14528608 73 13479136795627796481
14617045 38 18408890628691963650
15183329 4 18413672409277609855
15348495 7 14979664529348545471
15537594 2 18333452066368339674
17349148 13 18131353020632383261
17857418 61 18413667998092716486
1813 80 17603579737964956716
18222031 100 18408599266631978773
19319366 153 17749103392284156138
20028762 73 17988918981393211439
20403669 9 18272091578318471654
21150785 3 14418139534870801913
21267235 1 18411986840423901591
21279426 13 18338222783519314133
21682296 61 18413392016980745967
2215653 11 18409162229823444223
22950370 63 18408890602964318840
23522609 53 18126318339388019025
23559900 14 18339358690193489081
23569943 247 18270964523272038035
2748736 6 8718826470780932383
3004659 81 18187083928107869806
3383291 50 18409726253408751635
3411729 13 17630879594630058112
3472631 163 10737298934751996770
34797466 226 15864079779677321597
351380 3 18412262826532602375
404807 14 16481380598736748439
4073 2 18267583705198414256
46194498 28 17240484745049723124
465052 167 18202004309264971118
5104073 3 17917988339444535808
5372103 7 15937555821726366516
54039377 194 18264211310417520750
543368 44 11386369236436913415
6138700 20 18411419480214515039
960060 61 18259706705318578860

> <PUBCHEM_SHAPE_MULTIPOLES>
493.84
16.22
2.65
1.26
7.16
0.11
-0.14
-8.37
2.22
-1.3
-0.29
-1.4
-0.05
-0.07

> <PUBCHEM_SHAPE_SELFOVERLAP>
1077.704

> <PUBCHEM_SHAPE_VOLUME>
269.5

> <PUBCHEM_COORDINATE_TYPE>
2
5
10

$$$$
118662998
  -OEChem-05102415133D

 51 54  0     0  0  0  0  0  0999 V2000
   -5.8923   -0.3714    2.0456 O   0  0  0  0  0  0  0  0  0  0  0  0
    4.0481   -2.1329    0.8284 O   0  0  0  0  0  0  0  0  0  0  0  0
   -0.3338   -0.8563   -1.3959 O   0  0  0  0  0  0  0  0  0  0  0  0
   -6.0269   -0.5919   -0.2571 N   0  0  0  0  0  0  0  0  0  0  0  0
   -0.2498    1.4589   -1.3472 N   0  0  0  0  0  0  0  0  0  0  0  0
    7.6784   -0.1306    1.3052 N   0  0  0  0  0  0  0  0  0  0  0  0
    8.1153   -0.0600    0.0362 N   0  0  0  0  0  0  0  0  0  0  0  0
   -7.0935   -1.5544   -0.2620 C   0  0  0  0  0  0  0  0  0  0  0  0
   -6.8210   -3.0248   -0.0994 C   0  0  0  0  0  0  0  0  0  0  0  0
   -7.2908   -2.4931   -1.4207 C   0  0  0  0  0  0  0  0  0  0  0  0
   -5.4839   -0.0517    0.9150 C   0  0  0  0  0  0  0  0  0  0  0  0
   -4.3927    0.8976    0.7628 C   0  0  0  0  0  0  0  0  0  0  0  0
   -3.5638    0.8337   -0.3573 C   0  0  0  0  0  0  0  0  0  0  0  0
   -4.1745    1.8715    1.7374 C   0  0  0  0  0  0  0  0  0  0  0  0
   -2.5168    1.7439   -0.5030 C   0  0  0  0  0  0  0  0  0  0  0  0
   -1.6236    1.6749   -1.7079 C   0  0  0  0  0  0  0  0  0  0  0  0
   -3.1274    2.7815    1.5918 C   0  0  0  0  0  0  0  0  0  0  0  0
   -2.2986    2.7178    0.4715 C   0  0  0  0  0  0  0  0  0  0  0  0
    1.7291    0.1257   -0.8614 C   0  0  0  0  0  0  0  0  0  0  0  0
    0.3189    0.1865   -1.2114 C   0  0  0  0  0  0  0  0  0  0  0  0
    4.4351    0.0082   -0.1933 C   0  0  0  0  0  0  0  0  0  0  0  0
    3.5840   -1.0399    0.1576 C   0  0  0  0  0  0  0  0  0  0  0  0
    2.2309   -0.9810   -0.1764 C   0  0  0  0  0  0  0  0  0  0  0  0
    2.5801    1.1737   -1.2121 C   0  0  0  0  0  0  0  0  0  0  0  0
    3.9332    1.1150   -0.8779 C   0  0  0  0  0  0  0  0  0  0  0  0
    5.8336   -0.0329    0.1398 C   0  0  0  0  0  0  0  0  0  0  0  0
    6.3195   -0.1177    1.4217 C   0  0  0  0  0  0  0  0  0  0  0  0
    6.9839   -0.0005   -0.6711 C   0  0  0  0  0  0  0  0  0  0  0  0
    3.0995   -3.1501    1.1413 C   0  0  0  0  0  0  0  0  0  0  0  0
   -7.9975   -1.1678    0.1985 H   0  0  0  0  0  0  0  0  0  0  0  0
   -5.7915   -3.3535   -0.0265 H   0  0  0  0  0  0  0  0  0  0  0  0
   -7.5206   -3.6044    0.4901 H   0  0  0  0  0  0  0  0  0  0  0  0
   -6.5765   -2.4665   -2.2346 H   0  0  0  0  0  0  0  0  0  0  0  0
   -8.3069   -2.7158   -1.7221 H   0  0  0  0  0  0  0  0  0  0  0  0
   -5.7135   -0.2661   -1.1667 H   0  0  0  0  0  0  0  0  0  0  0  0
   -3.6915    0.0655   -1.1149 H   0  0  0  0  0  0  0  0  0  0  0  0
   -4.8119    1.9406    2.6151 H   0  0  0  0  0  0  0  0  0  0  0  0
   -1.9409    0.8806   -2.3930 H   0  0  0  0  0  0  0  0  0  0  0  0
   -1.6801    2.6208   -2.2584 H   0  0  0  0  0  0  0  0  0  0  0  0
   -2.9586    3.5410    2.3496 H   0  0  0  0  0  0  0  0  0  0  0  0
   -1.4897    3.4364    0.3691 H   0  0  0  0  0  0  0  0  0  0  0  0
    0.2974    2.2852   -1.1295 H   0  0  0  0  0  0  0  0  0  0  0  0
    1.5230   -1.7626    0.0768 H   0  0  0  0  0  0  0  0  0  0  0  0
    2.2370    2.0391   -1.7714 H   0  0  0  0  0  0  0  0  0  0  0  0
    4.5817    1.9400   -1.1641 H   0  0  0  0  0  0  0  0  0  0  0  0
    5.8384   -0.1671    2.3889 H   0  0  0  0  0  0  0  0  0  0  0  0
    7.0491    0.0634   -1.7483 H   0  0  0  0  0  0  0  0  0  0  0  0
    8.3653   -0.1851    2.0468 H   0  0  0  0  0  0  0  0  0  0  0  0
    3.6414   -3.9411    1.6705 H   0  0  0  0  0  0  0  0  0  0  0  0
    2.6808   -3.6066    0.2378 H   0  0  0  0  0  0  0  0  0  0  0  0
    2.3262   -2.7865    1.8268 H   0  0  0  0  0  0  0  0  0  0  0  0
  1 11  2  0  0  0  0
  2 22  1  0  0  0  0
  2 29  1  0  0  0  0
  3 20  2  0  0  0  0
  4  8  1  0  0  0  0
  4 11  1  0  0  0  0
  4 35  1  0  0  0  0
  5 16  1  0  0  0  0
  5 20  1  0  0  0  0
  5 42  1  0  0  0  0
  6  7  1  0  0  0  0
  6 27  1  0  0  0  0
  6 48  1  0  0  0  0
  7 28  2  0  0  0  0
  8  9  1  0  0  0  0
  8 10  1  0  0  0  0
  8 30  1  0  0  0  0
  9 10  1  0  0  0  0
  9 31  1  0  0  0  0
  9 32  1  0  0  0  0
 10 33  1  0  0  0  0
 10 34  1  0  0  0  0
 11 12  1  0  0  0  0
 12 13  1  0  0  0  0
 12 14  2  0  0  0  0
 13 15  2  0  0  0  0
 13 36  1  0  0  0  0
 14 17  1  0  0  0  0
 14 37  1  0  0  0  0
 15 16  1  0  0  0  0
 15 18  1  0  0  0  0
 16 38  1  0  0  0  0
 16 39  1  0  0  0  0
 17 18  2  0  0  0  0
 17 40  1  0  0  0  0
 18 41  1  0  0  0  0
 19 20  1  0  0  0  0
 19 23  2  0  0  0  0
 19 24  1  0  0  0  0
 21 22  2  0  0  0  0
 21 25  1  0  0  0  0
 21 26  1  0  0  0  0
 22 23  1  0  0  0  0
 23 43  1  0  0  0  0
 24 25  2  0  0  0  0
 24 44  1  0  0  0  0
 25 45  1  0  0  0  0
 26 27  2  0  0  0  0
 26 28  1  0  0  0  0
 27 46  1  0  0  0  0
 28 47  1  0  0  0  0
 29 49  1  0  0  0  0
 29 50  1  0  0  0  0
 29 51  1  0  0  0  0
M  END
> <PUBCHEM_COMPOUND_CID>
118662998

> <PUBCHEM_CONFORMER_RMSD>
1

> <PUBCHEM_CONFORMER_DIVERSEORDER>
29
43
32
67
6
80
16
31
76
65
66
57
23
89
60
44
21
97
12
74
101
79
91
77
46
25
36
14
24
42
70
68
33
17
15
5
90
30
55
18
98
34
75
78
73
1
84
35
45
88
13
69
22
85
93
38
62
56
27
53
82
3
83
58
49
28
50
19
94
87
61
47
20
100
37
99
54
10
81
7
41
86
96
72
71
26
48
40
11
95
8
39
63
64
59
2
52
51
9
92
4

> <PUBCHEM_MMFF94_PARTIAL_CHARGES>
46
1 -0.57
10 -0.2
11 0.54
12 0.09
13 -0.15
14 -0.15
15 -0.14
16 0.44
17 -0.15
18 -0.15
19 0.09
2 -0.36
20 0.54
21 0.05
22 0.08
23 -0.15
24 -0.15
25 -0.15
26 -0.05
27 -0.3
28 0.14
29 0.28
3 -0.57
30 0.1
31 0.1
32 0.1
33 0.1
34 0.1
35 0.37
36 0.15
37 0.15
4 -0.58
40 0.15
41 0.15
42 0.37
43 0.15
44 0.15
45 0.15
46 0.15
47 0.15
48 0.27
5 -0.73
6 0.3
7 -0.71
8 0.05
9 -0.2

> <PUBCHEM_EFFECTIVE_ROTOR_COUNT>
9.6

> <PUBCHEM_PHARMACOPHORE_FEATURES>
10
1 1 acceptor
1 2 acceptor
1 3 acceptor
1 4 donor
1 5 donor
1 6 donor
1 7 acceptor
5 6 7 26 27 28 rings
6 12 13 14 15 17 18 rings
6 19 21 22 23 24 25 rings

> <PUBCHEM_HEAVY_ATOM_COUNT>
29

> <PUBCHEM_ATOM_DEF_STEREO_COUNT>
0

> <PUBCHEM_ATOM_UDEF_STEREO_COUNT>
0

> <PUBCHEM_BOND_DEF_STEREO_COUNT>
0

> <PUBCHEM_BOND_UDEF_STEREO_COUNT>
0

> <PUBCHEM_ISOTOPIC_ATOM_COUNT>
0

> <PUBCHEM_COMPONENT_COUNT>
1

> <PUBCHEM_CACTVS_TAUTO_COUNT>
18

> <PUBCHEM_CONFORMER_ID>
0712A7560000001D

> <PUBCHEM_MMFF94_ENERGY>
84.016

> <PUBCHEM_FEATURE_SELFOVERLAP>
50.748

> <PUBCHEM_SHAPE_FINGERPRINT>
10 15 16630527323687525173
10369192 42 15123792885836582221
11497681 19 18409166593336598510
12373685 5 16951108583134214913
12596602 18 18200314312548322880
13692114 37 18335133254793353706
13782708 43 16879069625645420706
14394314 77 18410577263198318713
1454969 45 18040439910384998806
14849402 71 18341614880334910032
15064981 194 11023524931762037785
15350500 16 17988072414244790647
15510800 12 16443929175019643488
15519825 34 18342451590558688411
15684389 69 18335423512655696764
15728490 51 18412824711297633447
16120349 67 11747202538882680351
16992727 255 10953730098030662079
19377110 9 18341894069433191132
20028762 73 18408325496832144950
21095123 145 18413110568047983444
21130935 74 18341894027196057842
21298829 104 8935006962039096716
21315759 148 17632305523117585196
21623969 137 17676490498087606288
23389318 12 17676492787152175414
23559900 14 14490771094694344909
23569943 247 17905046946680366146
3004659 81 8286190631257288364
38570 142 10807938159112055077
392239 28 18130518491565409897
4015057 19 16805897289909913813
4394409 98 12901547936068097793
45266715 3 16587737625131937147
474113 269 15285897158327529960
508180 173 11169917186516582895
5104073 3 18193840336486594712
5969126 39 17458619013163625117
59755656 520 13758352276143996093
9689198 14 15410902855017094585
9953998 17 17346606275111371547

> <PUBCHEM_SHAPE_MULTIPOLES>
559.27
22.94
2.96
1.64
5.44
0.94
-0.22
12.47
-4.68
-5.22
-0.59
-0.8
-0.36
-2.85

> <PUBCHEM_SHAPE_SELFOVERLAP>
1213.902

> <PUBCHEM_SHAPE_VOLUME>
306.2

> <PUBCHEM_COORDINATE_TYPE>
2
5
10

$$$$
118663038
  -OEChem-05102415133D

 44 46  0     1  0  0  0  0  0999 V2000
    4.7439    1.2421   -1.6807 F   0  0  0  0  0  0  0  0  0  0  0  0
    4.7010    1.4417    2.1375 O   0  0  0  0  0  0  0  0  0  0  0  0
   -2.8615   -1.6699    1.0585 O   0  0  0  0  0  0  0  0  0  0  0  0
    0.9304    2.7748    0.2145 O   0  0  0  0  0  0  0  0  0  0  0  0
    1.6046    0.5611    0.3607 N   0  0  0  0  0  0  0  0  0  0  0  0
   -6.7823   -0.3124   -1.1419 N   0  0  0  0  0  0  0  0  0  0  0  0
   -6.8343   -1.0043    0.0091 N   0  0  0  0  0  0  0  0  0  0  0  0
    3.0154    0.8261    0.5290 C   0  0  2  0  0  0  0  0  0  0  0  0
    3.8502   -0.2749   -0.0888 C   0  0  0  0  0  0  0  0  0  0  0  0
    3.3389    1.0472    2.0091 C   0  0  0  0  0  0  0  0  0  0  0  0
   -0.7425    1.1375    0.0772 C   0  0  0  0  0  0  0  0  0  0  0  0
    0.6409    1.5652    0.2123 C   0  0  0  0  0  0  0  0  0  0  0  0
   -3.3974    0.3196   -0.1795 C   0  0  0  0  0  0  0  0  0  0  0  0
    4.6802    0.0026   -1.1750 C   0  0  0  0  0  0  0  0  0  0  0  0
    3.7898   -1.5683    0.4304 C   0  0  0  0  0  0  0  0  0  0  0  0
   -2.4838   -0.4817    0.5056 C   0  0  0  0  0  0  0  0  0  0  0  0
   -1.1564   -0.0726    0.6338 C   0  0  0  0  0  0  0  0  0  0  0  0
   -1.6561    1.9388   -0.6079 C   0  0  0  0  0  0  0  0  0  0  0  0
   -2.9835    1.5296   -0.7365 C   0  0  0  0  0  0  0  0  0  0  0  0
   -4.7710   -0.0823   -0.3220 C   0  0  0  0  0  0  0  0  0  0  0  0
    5.4498   -1.0131   -1.7422 C   0  0  0  0  0  0  0  0  0  0  0  0
    4.5597   -2.5840   -0.1367 C   0  0  0  0  0  0  0  0  0  0  0  0
    5.3895   -2.3065   -1.2230 C   0  0  0  0  0  0  0  0  0  0  0  0
   -5.5685    0.2594   -1.3869 C   0  0  0  0  0  0  0  0  0  0  0  0
   -5.6028   -0.8600    0.5055 C   0  0  0  0  0  0  0  0  0  0  0  0
   -1.8542   -2.4156    1.7380 C   0  0  0  0  0  0  0  0  0  0  0  0
    3.2377    1.7657    0.0072 H   0  0  0  0  0  0  0  0  0  0  0  0
    1.3234   -0.4125    0.3148 H   0  0  0  0  0  0  0  0  0  0  0  0
    2.7155    1.8469    2.4247 H   0  0  0  0  0  0  0  0  0  0  0  0
    3.1742    0.1487    2.6132 H   0  0  0  0  0  0  0  0  0  0  0  0
    3.1452   -1.8077    1.2717 H   0  0  0  0  0  0  0  0  0  0  0  0
   -0.4343   -0.6475    1.1989 H   0  0  0  0  0  0  0  0  0  0  0  0
   -1.3526    2.8845   -1.0495 H   0  0  0  0  0  0  0  0  0  0  0  0
   -3.6691    2.1870   -1.2652 H   0  0  0  0  0  0  0  0  0  0  0  0
    6.0957   -0.7968   -2.5880 H   0  0  0  0  0  0  0  0  0  0  0  0
    4.5118   -3.5914    0.2664 H   0  0  0  0  0  0  0  0  0  0  0  0
    5.9884   -3.0975   -1.6649 H   0  0  0  0  0  0  0  0  0  0  0  0
    4.8685    1.5820    3.0849 H   0  0  0  0  0  0  0  0  0  0  0  0
   -5.3997    0.8354   -2.2864 H   0  0  0  0  0  0  0  0  0  0  0  0
   -5.3836   -1.3233    1.4569 H   0  0  0  0  0  0  0  0  0  0  0  0
   -7.6152   -0.2729   -1.7160 H   0  0  0  0  0  0  0  0  0  0  0  0
   -1.4827   -1.8844    2.6211 H   0  0  0  0  0  0  0  0  0  0  0  0
   -1.0502   -2.7254    1.0614 H   0  0  0  0  0  0  0  0  0  0  0  0
   -2.3277   -3.3337    2.1018 H   0  0  0  0  0  0  0  0  0  0  0  0
  1 14  1  0  0  0  0
  2 10  1  0  0  0  0
  2 38  1  0  0  0  0
  3 16  1  0  0  0  0
  3 26  1  0  0  0  0
  4 12  2  0  0  0  0
  5  8  1  0  0  0  0
  5 12  1  0  0  0  0
  5 28  1  0  0  0  0
  6  7  1  0  0  0  0
  6 24  1  0  0  0  0
  6 41  1  0  0  0  0
  7 25  2  0  0  0  0
  8  9  1  0  0  0  0
  8 10  1  0  0  0  0
  8 27  1  0  0  0  0
  9 14  1  0  0  0  0
  9 15  2  0  0  0  0
 10 29  1  0  0  0  0
 10 30  1  0  0  0  0
 11 12  1  0  0  0  0
 11 17  2  0  0  0  0
 11 18  1  0  0  0  0
 13 16  2  0  0  0  0
 13 19  1  0  0  0  0
 13 20  1  0  0  0  0
 14 21  2  0  0  0  0
 15 22  1  0  0  0  0
 15 31  1  0  0  0  0
 16 17  1  0  0  0  0
 17 32  1  0  0  0  0
 18 19  2  0  0  0  0
 18 33  1  0  0  0  0
 19 34  1  0  0  0  0
 20 24  2  0  0  0  0
 20 25  1  0  0  0  0
 21 23  1  0  0  0  0
 21 35  1  0  0  0  0
 22 23  2  0  0  0  0
 22 36  1  0  0  0  0
 23 37  1  0  0  0  0
 24 39  1  0  0  0  0
 25 40  1  0  0  0  0
 26 42  1  0  0  0  0
 26 43  1  0  0  0  0
 26 44  1  0  0  0  0
M  END
> <PUBCHEM_COMPOUND_CID>
118663038

> <PUBCHEM_CONFORMER_RMSD>
0.8

> <PUBCHEM_CONFORMER_DIVERSEORDER>
6
107
58
85
122
90
22
93
25
64
129
68
82
83
56
108
39
5
94
98
125
21
135
74
154
27
72
158
11
140
89
31
20
19
100
51
55
91
157
132
84
46
87
101
155
32
99
24
143
41
114
152
80
35
120
47
137
67
104
106
9
134
88
86
121
40
16
13
23
63
148
17
53
139
62
151
44
33
102
127
48
29
156
18
118
79
138
123
149
95
54
10
61
117
1
153
12
115
50
103
15
112
147
37
105
26
110
73
119
59
52
92
113
38
142
43
45
34
30
7
144
109
8
66
28
78
136
146
75
81
116
71
49
96
70
36
3
57
145
130
14
128
150
126
133
69
65
4
60
124
131
77
141
2
76
97
42
111

> <PUBCHEM_MMFF94_PARTIAL_CHARGES>
38
1 -0.19
10 0.28
11 0.09
12 0.54
13 0.05
14 0.19
15 -0.15
16 0.08
17 -0.15
18 -0.15
19 -0.15
2 -0.68
20 -0.05
21 -0.15
22 -0.15
23 -0.15
24 -0.3
25 0.14
26 0.28
28 0.37
3 -0.36
31 0.15
32 0.15
33 0.15
34 0.15
35 0.15
36 0.15
37 0.15
38 0.4
39 0.15
4 -0.57
40 0.15
41 0.27
5 -0.73
6 0.3
7 -0.71
8 0.44
9 -0.14

> <PUBCHEM_EFFECTIVE_ROTOR_COUNT>
7

> <PUBCHEM_PHARMACOPHORE_FEATURES>
10
1 2 acceptor
1 2 donor
1 3 acceptor
1 4 acceptor
1 5 donor
1 6 donor
1 7 acceptor
5 6 7 20 24 25 rings
6 11 13 16 17 18 19 rings
6 9 14 15 21 22 23 rings

> <PUBCHEM_HEAVY_ATOM_COUNT>
26

> <PUBCHEM_ATOM_DEF_STEREO_COUNT>
0

> <PUBCHEM_ATOM_UDEF_STEREO_COUNT>
1

> <PUBCHEM_BOND_DEF_STEREO_COUNT>
0

> <PUBCHEM_BOND_UDEF_STEREO_COUNT>
0

> <PUBCHEM_ISOTOPIC_ATOM_COUNT>
0

> <PUBCHEM_COMPONENT_COUNT>
1

> <PUBCHEM_CACTVS_TAUTO_COUNT>
9

> <PUBCHEM_CONFORMER_ID>
0712A77E00000006

> <PUBCHEM_MMFF94_ENERGY>
73.3235

> <PUBCHEM_FEATURE_SELFOVERLAP>
50.748

> <PUBCHEM_SHAPE_FINGERPRINT>
10319926 262 13758082878551907133
10366900 7 18341903956785776418
10554248 39 15720489020468599467
11991303 11 17978238149543014393
12166972 35 17275388719976907281
12236239 1 15841554102503031441
12596602 18 15339113533374615494
12616971 3 15913318087733316797
12925494 130 10662728900837172563
13150687 139 18262818371229650164
13402501 40 18410579465561999574
13533116 47 17561079228526357480
13617811 41 17894343380738804605
13685833 64 17988924457491655262
13782708 43 18131350787085891799
13955234 65 17845924243316738472
14565420 104 16628813292987854872
14910302 57 18334006177400053974
14931854 50 18115033983254364998
15183329 4 17168141217969605669
15348495 7 12679167328404749199
15475509 8 18335423422646532645
15575132 122 15936684875061873311
17349148 13 16988849384187235005
17844677 252 17775566424939763257
20645477 70 17846494825379045048
21150785 3 15647058187941398655
21279426 13 18336818698628162749
21307412 95 18410022022141884263
21315764 268 10807939223868461202
21344244 78 15554440778567732098
21521239 73 18271511088272819823
21682296 61 18201441342269155303
21781051 124 17531254980651553035
22061861 79 18341890779794145879
221357 26 18409167688352162022
2215653 11 18410011044194328343
22849339 104 17749400307652315619
2303208 19 18342735209130183589
23522609 53 17984456050589925545
23559900 14 18261397800940693652
23569943 247 18127977416978066123
3004659 81 17967814921171199386
34797466 226 17603874428682306541
3886686 26 13394179589333495870
46194498 28 17822294621380234668
465052 167 17917996049189874030
5104073 3 17561079164033673000
59755656 215 18187357706645792623
6608658 132 16153987928916199693
8988823 20 17632289107910958672
960060 61 18409733963074455372

> <PUBCHEM_SHAPE_MULTIPOLES>
495.24
16.4
2.46
1.61
8.86
0.34
0.27
7.16
-5.91
-1.97
0.4
-1.6
0.02
2.19

> <PUBCHEM_SHAPE_SELFOVERLAP>
1077.405

> <PUBCHEM_SHAPE_VOLUME>
270.9

> <PUBCHEM_COORDINATE_TYPE>
2
5
10

$$$$
118663028
  -OEChem-05102415133D

 55 58  0     1  0  0  0  0  0999 V2000
   -0.5225   -2.4194    0.3902 O   0  0  0  0  0  0  0  0  0  0  0  0
    4.5476   -2.1840    0.3824 O   0  0  0  0  0  0  0  0  0  0  0  0
   -4.7355   -0.8343   -0.1378 N   0  0  0  0  0  0  0  0  0  0  0  0
   -1.1017   -0.6174   -0.9505 N   0  0  0  0  0  0  0  0  0  0  0  0
    6.9989    1.5815   -0.4060 N   0  0  0  0  0  0  0  0  0  0  0  0
    7.2332    1.1345    0.8397 N   0  0  0  0  0  0  0  0  0  0  0  0
   -4.8051   -2.2953   -0.1437 C   0  0  0  0  0  0  0  0  0  0  0  0
   -5.5809   -0.4185    0.9810 C   0  0  0  0  0  0  0  0  0  0  0  0
   -3.3709   -0.3435   -0.0154 C   0  0  1  0  0  0  0  0  0  0  0  0
   -6.2794   -2.5678    0.1161 C   0  0  0  0  0  0  0  0  0  0  0  0
   -6.7900   -1.3330    0.8521 C   0  0  0  0  0  0  0  0  0  0  0  0
   -2.4899   -0.9636   -1.1112 C   0  0  0  0  0  0  0  0  0  0  0  0
   -3.3430    1.1753   -0.0132 C   0  0  0  0  0  0  0  0  0  0  0  0
   -2.3940    1.8543    0.7510 C   0  0  0  0  0  0  0  0  0  0  0  0
   -4.2666    1.8908   -0.7754 C   0  0  0  0  0  0  0  0  0  0  0  0
   -0.2205   -1.3863   -0.2015 C   0  0  0  0  0  0  0  0  0  0  0  0
   -2.3684    3.2490    0.7530 C   0  0  0  0  0  0  0  0  0  0  0  0
   -4.2411    3.2855   -0.7733 C   0  0  0  0  0  0  0  0  0  0  0  0
   -3.2918    3.9646   -0.0093 C   0  0  0  0  0  0  0  0  0  0  0  0
    1.1729   -0.8793   -0.1117 C   0  0  0  0  0  0  0  0  0  0  0  0
    2.2273   -1.7688    0.0956 C   0  0  0  0  0  0  0  0  0  0  0  0
    1.4272    0.4866   -0.2362 C   0  0  0  0  0  0  0  0  0  0  0  0
    3.5358   -1.2926    0.1781 C   0  0  0  0  0  0  0  0  0  0  0  0
    3.7899    0.0733    0.0535 C   0  0  0  0  0  0  0  0  0  0  0  0
    2.7356    0.9629   -0.1534 C   0  0  0  0  0  0  0  0  0  0  0  0
    5.1314    0.5854    0.1338 C   0  0  0  0  0  0  0  0  0  0  0  0
    5.7545    1.2788   -0.8751 C   0  0  0  0  0  0  0  0  0  0  0  0
    6.0890    0.5268    1.1641 C   0  0  0  0  0  0  0  0  0  0  0  0
    5.1583   -2.7454   -0.7770 C   0  0  0  0  0  0  0  0  0  0  0  0
   -4.1999   -2.7428    0.6553 H   0  0  0  0  0  0  0  0  0  0  0  0
   -4.5221   -2.7397   -1.1028 H   0  0  0  0  0  0  0  0  0  0  0  0
   -5.8985    0.6272    0.9451 H   0  0  0  0  0  0  0  0  0  0  0  0
   -5.0932   -0.5972    1.9486 H   0  0  0  0  0  0  0  0  0  0  0  0
   -2.9686   -0.6747    0.9546 H   0  0  0  0  0  0  0  0  0  0  0  0
   -6.8270   -2.6899   -0.8259 H   0  0  0  0  0  0  0  0  0  0  0  0
   -6.4207   -3.4786    0.7069 H   0  0  0  0  0  0  0  0  0  0  0  0
   -7.5809   -0.8528    0.2639 H   0  0  0  0  0  0  0  0  0  0  0  0
   -7.2072   -1.5887    1.8314 H   0  0  0  0  0  0  0  0  0  0  0  0
   -2.5305   -2.0561   -1.1215 H   0  0  0  0  0  0  0  0  0  0  0  0
   -2.7933   -0.6099   -2.1040 H   0  0  0  0  0  0  0  0  0  0  0  0
   -0.7745    0.1997   -1.4546 H   0  0  0  0  0  0  0  0  0  0  0  0
   -1.6701    1.3105    1.3519 H   0  0  0  0  0  0  0  0  0  0  0  0
   -5.0023    1.3940   -1.4019 H   0  0  0  0  0  0  0  0  0  0  0  0
   -1.6294    3.7776    1.3479 H   0  0  0  0  0  0  0  0  0  0  0  0
   -4.9562    3.8430   -1.3711 H   0  0  0  0  0  0  0  0  0  0  0  0
   -3.2710    5.0504   -0.0088 H   0  0  0  0  0  0  0  0  0  0  0  0
    2.0412   -2.8360    0.1906 H   0  0  0  0  0  0  0  0  0  0  0  0
    0.6339    1.2161   -0.3680 H   0  0  0  0  0  0  0  0  0  0  0  0
    2.9103    2.0328   -0.2426 H   0  0  0  0  0  0  0  0  0  0  0  0
    5.4388    1.5789   -1.8648 H   0  0  0  0  0  0  0  0  0  0  0  0
    6.0044    0.0681    2.1393 H   0  0  0  0  0  0  0  0  0  0  0  0
    7.7359    2.0879   -0.8806 H   0  0  0  0  0  0  0  0  0  0  0  0
    5.9762   -3.3944   -0.4523 H   0  0  0  0  0  0  0  0  0  0  0  0
    5.5693   -1.9642   -1.4237 H   0  0  0  0  0  0  0  0  0  0  0  0
    4.4344   -3.3487   -1.3339 H   0  0  0  0  0  0  0  0  0  0  0  0
  1 16  2  0  0  0  0
  2 23  1  0  0  0  0
  2 29  1  0  0  0  0
  3  7  1  0  0  0  0
  3  8  1  0  0  0  0
  3  9  1  0  0  0  0
  4 12  1  0  0  0  0
  4 16  1  0  0  0  0
  4 41  1  0  0  0  0
  5  6  1  0  0  0  0
  5 27  1  0  0  0  0
  5 52  1  0  0  0  0
  6 28  2  0  0  0  0
  7 10  1  0  0  0  0
  7 30  1  0  0  0  0
  7 31  1  0  0  0  0
  8 11  1  0  0  0  0
  8 32  1  0  0  0  0
  8 33  1  0  0  0  0
  9 12  1  0  0  0  0
  9 13  1  0  0  0  0
  9 34  1  0  0  0  0
 10 11  1  0  0  0  0
 10 35  1  0  0  0  0
 10 36  1  0  0  0  0
 11 37  1  0  0  0  0
 11 38  1  0  0  0  0
 12 39  1  0  0  0  0
 12 40  1  0  0  0  0
 13 14  2  0  0  0  0
 13 15  1  0  0  0  0
 14 17  1  0  0  0  0
 14 42  1  0  0  0  0
 15 18  2  0  0  0  0
 15 43  1  0  0  0  0
 16 20  1  0  0  0  0
 17 19  2  0  0  0  0
 17 44  1  0  0  0  0
 18 19  1  0  0  0  0
 18 45  1  0  0  0  0
 19 46  1  0  0  0  0
 20 21  2  0  0  0  0
 20 22  1  0  0  0  0
 21 23  1  0  0  0  0
 21 47  1  0  0  0  0
 22 25  2  0  0  0  0
 22 48  1  0  0  0  0
 23 24  2  0  0  0  0
 24 25  1  0  0  0  0
 24 26  1  0  0  0  0
 25 49  1  0  0  0  0
 26 27  2  0  0  0  0
 26 28  1  0  0  0  0
 27 50  1  0  0  0  0
 28 51  1  0  0  0  0
 29 53  1  0  0  0  0
 29 54  1  0  0  0  0
 29 55  1  0  0  0  0
M  END
> <PUBCHEM_COMPOUND_CID>
118663028

> <PUBCHEM_CONFORMER_RMSD>
1

> <PUBCHEM_CONFORMER_DIVERSEORDER>
3
22
67
37
45
17
52
54
42
14
33
36
25
62
50
29
6
63
66
40
43
18
34
35
39
55
57
56
13
38
21
23
12
51
61
32
10
27
19
58
46
49
47
44
53
48
60
9
64
7
5
59
16
11
20
26
15
65
4
8
41
31
24
28
30
2
1

> <PUBCHEM_MMFF94_PARTIAL_CHARGES>
39
1 -0.57
12 0.3
13 -0.14
14 -0.15
15 -0.15
16 0.54
17 -0.15
18 -0.15
19 -0.15
2 -0.36
20 0.09
21 -0.15
22 -0.15
23 0.08
24 0.05
25 -0.15
26 -0.05
27 -0.3
28 0.14
29 0.28
3 -0.81
4 -0.73
41 0.37
42 0.15
43 0.15
44 0.15
45 0.15
46 0.15
47 0.15
48 0.15
49 0.15
5 0.3
50 0.15
51 0.15
52 0.27
6 -0.71
7 0.27
8 0.27
9 0.41

> <PUBCHEM_EFFECTIVE_ROTOR_COUNT>
9

> <PUBCHEM_PHARMACOPHORE_FEATURES>
10
1 1 acceptor
1 2 acceptor
1 3 cation
1 4 donor
1 5 donor
1 6 acceptor
5 3 7 8 10 11 rings
5 5 6 26 27 28 rings
6 13 14 15 17 18 19 rings
6 20 21 22 23 24 25 rings

> <PUBCHEM_HEAVY_ATOM_COUNT>
29

> <PUBCHEM_ATOM_DEF_STEREO_COUNT>
0

> <PUBCHEM_ATOM_UDEF_STEREO_COUNT>
1

> <PUBCHEM_BOND_DEF_STEREO_COUNT>
0

> <PUBCHEM_BOND_UDEF_STEREO_COUNT>
0

> <PUBCHEM_ISOTOPIC_ATOM_COUNT>
0

> <PUBCHEM_COMPONENT_COUNT>
1

> <PUBCHEM_CACTVS_TAUTO_COUNT>
9

> <PUBCHEM_CONFORMER_ID>
0712A77400000003

> <PUBCHEM_MMFF94_ENERGY>
81.2468

> <PUBCHEM_FEATURE_SELFOVERLAP>
50.747

> <PUBCHEM_SHAPE_FINGERPRINT>
10050765 1 18338517422433480750
10290309 65 18200877279777188975
10369192 42 17060345149258407405
10595046 47 18408040702066766730
12107183 9 17831010226488403490
12107698 1 18334294318208693169
12166972 35 17822854306889647741
12596602 18 17967525762059977976
12788726 201 18334006212329823275
12916748 109 18411422812718746526
13073987 5 18408319960998673074
13560911 43 18335980968855914977
13631057 29 18411134762384580001
13726171 33 18271248210051067657
14118638 360 18409448077087437582
14341114 176 18408890624555212967
14790565 3 18410293571754323278
14849402 71 18192996143654073084
14856354 85 18267025131748862487
15064986 266 18269276777497476269
15183329 4 16630527323819225230
15196674 1 18338797819141038276
15338160 23 17774454797979327089
15419008 145 18261096449899991680
17844677 252 18338241466147042638
18608769 82 18341048635159487986
21033648 144 18190170188121749357
21279426 13 18270120094204057694
22956985 138 17323811436231117347
23559900 14 17840867378481088118
2747138 104 18188226372070923227
283562 15 18334293159279562899
350125 39 18411982481343572897
392239 28 18335710476764103483
4015057 19 13407083647435285415
4144715 1 18338243656622756330
4197921 191 18187650245336958124
4258327 124 16589166002975052246
469060 322 18339377322252295177
5104073 3 18337384933946423978
550186 72 18410293601540467933
5776283 40 18123194773678948072
59521270 166 10447390712499104714

> <PUBCHEM_SHAPE_MULTIPOLES>
565.14
18.88
3.88
0.95
13.61
2.19
0.01
-1.11
2.38
-4.57
-0.17
-0.02
0.12
0.81

> <PUBCHEM_SHAPE_SELFOVERLAP>
1224.256

> <PUBCHEM_SHAPE_VOLUME>
311.7

> <PUBCHEM_COORDINATE_TYPE>
2
5
10

$$$$
118662907
  -OEChem-05102415133D

 51 53  0     0  0  0  0  0  0999 V2000
   -2.6306   -1.7416    0.6941 O   0  0  0  0  0  0  0  0  0  0  0  0
    0.5251    3.1318   -0.4140 O   0  0  0  0  0  0  0  0  0  0  0  0
    4.2461   -2.7939    0.1334 N   0  0  0  0  0  0  0  0  0  0  0  0
    1.1434    1.5698    1.1851 N   0  0  0  0  0  0  0  0  0  0  0  0
   -6.8063   -0.9219   -0.9512 N   0  0  0  0  0  0  0  0  0  0  0  0
   -6.8856   -1.2858    0.3400 N   0  0  0  0  0  0  0  0  0  0  0  0
    4.8689   -0.4278   -0.0911 C   0  0  0  0  0  0  0  0  0  0  0  0
    5.3440   -1.8285    0.1669 C   0  0  0  0  0  0  0  0  0  0  0  0
    3.4824    1.4563    0.5134 C   0  0  0  0  0  0  0  0  0  0  0  0
    2.4715    2.0792    1.4156 C   0  0  0  0  0  0  0  0  0  0  0  0
    3.9233    0.1548    0.7529 C   0  0  0  0  0  0  0  0  0  0  0  0
    5.3735    0.2913   -1.1747 C   0  0  0  0  0  0  0  0  0  0  0  0
    3.9870    2.1754   -0.5703 C   0  0  0  0  0  0  0  0  0  0  0  0
   -1.0736    1.5202    0.1735 C   0  0  0  0  0  0  0  0  0  0  0  0
   -3.5958    0.3426   -0.0149 C   0  0  0  0  0  0  0  0  0  0  0  0
    4.9327    1.5930   -1.4141 C   0  0  0  0  0  0  0  0  0  0  0  0
    0.2688    2.1482    0.2755 C   0  0  0  0  0  0  0  0  0  0  0  0
   -2.4987   -0.4190    0.3878 C   0  0  0  0  0  0  0  0  0  0  0  0
   -1.2377    0.1698    0.4820 C   0  0  0  0  0  0  0  0  0  0  0  0
   -2.1708    2.2819   -0.2292 C   0  0  0  0  0  0  0  0  0  0  0  0
   -3.4317    1.6930   -0.3236 C   0  0  0  0  0  0  0  0  0  0  0  0
   -4.9048   -0.2440   -0.1170 C   0  0  0  0  0  0  0  0  0  0  0  0
    4.6239   -4.0220    0.8316 C   0  0  0  0  0  0  0  0  0  0  0  0
    3.8656   -3.0875   -1.2478 C   0  0  0  0  0  0  0  0  0  0  0  0
   -5.6397   -0.2942   -1.2763 C   0  0  0  0  0  0  0  0  0  0  0  0
   -5.7213   -0.8690    0.8446 C   0  0  0  0  0  0  0  0  0  0  0  0
   -2.4595   -2.6721   -0.3723 C   0  0  0  0  0  0  0  0  0  0  0  0
    6.1497   -2.1138   -0.5231 H   0  0  0  0  0  0  0  0  0  0  0  0
    5.8048   -1.8115    1.1649 H   0  0  0  0  0  0  0  0  0  0  0  0
    2.7267    1.8748    2.4620 H   0  0  0  0  0  0  0  0  0  0  0  0
    2.4629    3.1699    1.3034 H   0  0  0  0  0  0  0  0  0  0  0  0
    3.5319   -0.4012    1.6018 H   0  0  0  0  0  0  0  0  0  0  0  0
    6.1095   -0.1498   -1.8415 H   0  0  0  0  0  0  0  0  0  0  0  0
    3.6515    3.1896   -0.7701 H   0  0  0  0  0  0  0  0  0  0  0  0
    0.8497    0.7903    1.7636 H   0  0  0  0  0  0  0  0  0  0  0  0
    5.3251    2.1526   -2.2581 H   0  0  0  0  0  0  0  0  0  0  0  0
   -0.4002   -0.4601    0.7687 H   0  0  0  0  0  0  0  0  0  0  0  0
   -2.0644    3.3368   -0.4682 H   0  0  0  0  0  0  0  0  0  0  0  0
   -4.2742    2.3068   -0.6341 H   0  0  0  0  0  0  0  0  0  0  0  0
    4.8496   -3.8149    1.8837 H   0  0  0  0  0  0  0  0  0  0  0  0
    3.7945   -4.7382    0.8271 H   0  0  0  0  0  0  0  0  0  0  0  0
    5.4979   -4.5035    0.3781 H   0  0  0  0  0  0  0  0  0  0  0  0
    4.6926   -3.5169   -1.8254 H   0  0  0  0  0  0  0  0  0  0  0  0
    3.0318   -3.7987   -1.2695 H   0  0  0  0  0  0  0  0  0  0  0  0
    3.5118   -2.1894   -1.7653 H   0  0  0  0  0  0  0  0  0  0  0  0
   -5.4480    0.0484   -2.2839 H   0  0  0  0  0  0  0  0  0  0  0  0
   -5.5203   -1.0396    1.8930 H   0  0  0  0  0  0  0  0  0  0  0  0
   -7.5879   -1.1343   -1.5585 H   0  0  0  0  0  0  0  0  0  0  0  0
   -2.6459   -3.6766    0.0173 H   0  0  0  0  0  0  0  0  0  0  0  0
   -1.4340   -2.6304   -0.7528 H   0  0  0  0  0  0  0  0  0  0  0  0
   -3.1671   -2.4763   -1.1837 H   0  0  0  0  0  0  0  0  0  0  0  0
  1 18  1  0  0  0  0
  1 27  1  0  0  0  0
  2 17  2  0  0  0  0
  3  8  1  0  0  0  0
  3 23  1  0  0  0  0
  3 24  1  0  0  0  0
  4 10  1  0  0  0  0
  4 17  1  0  0  0  0
  4 35  1  0  0  0  0
  5  6  1  0  0  0  0
  5 25  1  0  0  0  0
  5 48  1  0  0  0  0
  6 26  2  0  0  0  0
  7  8  1  0  0  0  0
  7 11  1  0  0  0  0
  7 12  2  0  0  0  0
  8 28  1  0  0  0  0
  8 29  1  0  0  0  0
  9 10  1  0  0  0  0
  9 11  2  0  0  0  0
  9 13  1  0  0  0  0
 10 30  1  0  0  0  0
 10 31  1  0  0  0  0
 11 32  1  0  0  0  0
 12 16  1  0  0  0  0
 12 33  1  0  0  0  0
 13 16  2  0  0  0  0
 13 34  1  0  0  0  0
 14 17  1  0  0  0  0
 14 19  2  0  0  0  0
 14 20  1  0  0  0  0
 15 18  2  0  0  0  0
 15 21  1  0  0  0  0
 15 22  1  0  0  0  0
 16 36  1  0  0  0  0
 18 19  1  0  0  0  0
 19 37  1  0  0  0  0
 20 21  2  0  0  0  0
 20 38  1  0  0  0  0
 21 39  1  0  0  0  0
 22 25  2  0  0  0  0
 22 26  1  0  0  0  0
 23 40  1  0  0  0  0
 23 41  1  0  0  0  0
 23 42  1  0  0  0  0
 24 43  1  0  0  0  0
 24 44  1  0  0  0  0
 24 45  1  0  0  0  0
 25 46  1  0  0  0  0
 26 47  1  0  0  0  0
 27 49  1  0  0  0  0
 27 50  1  0  0  0  0
 27 51  1  0  0  0  0
M  END
> <PUBCHEM_COMPOUND_CID>
118662907

> <PUBCHEM_CONFORMER_RMSD>
1

> <PUBCHEM_CONFORMER_DIVERSEORDER>
1
39
9
49
36
2
42
63
37
46
3
29
18
41
13
31
50
23
54
59
45
68
34
16
8
69
48
11
57
26
53
22
55
70
15
32
56
30
67
33
61
40
47
12
60
38
27
4
51
10
35
52
20
62
5
21
65
14
19
24
44
28
43
66
7
58
64
6
17
25

> <PUBCHEM_MMFF94_PARTIAL_CHARGES>
38
1 -0.36
10 0.44
11 -0.15
12 -0.15
13 -0.15
14 0.09
15 0.05
16 -0.15
17 0.54
18 0.08
19 -0.15
2 -0.57
20 -0.15
21 -0.15
22 -0.05
23 0.27
24 0.27
25 -0.3
26 0.14
27 0.28
3 -0.81
32 0.15
33 0.15
34 0.15
35 0.37
36 0.15
37 0.15
38 0.15
39 0.15
4 -0.73
46 0.15
47 0.15
48 0.27
5 0.3
6 -0.71
7 -0.14
8 0.41
9 -0.14

> <PUBCHEM_EFFECTIVE_ROTOR_COUNT>
8

> <PUBCHEM_PHARMACOPHORE_FEATURES>
9
1 1 acceptor
1 2 acceptor
1 3 cation
1 4 donor
1 5 donor
1 6 acceptor
5 5 6 22 25 26 rings
6 14 15 18 19 20 21 rings
6 7 9 11 12 13 16 rings

> <PUBCHEM_HEAVY_ATOM_COUNT>
27

> <PUBCHEM_ATOM_DEF_STEREO_COUNT>
0

> <PUBCHEM_ATOM_UDEF_STEREO_COUNT>
0

> <PUBCHEM_BOND_DEF_STEREO_COUNT>
0

> <PUBCHEM_BOND_UDEF_STEREO_COUNT>
0

> <PUBCHEM_ISOTOPIC_ATOM_COUNT>
0

> <PUBCHEM_COMPONENT_COUNT>
1

> <PUBCHEM_CACTVS_TAUTO_COUNT>
9

> <PUBCHEM_CONFORMER_ID>
0712A6FB00000001

> <PUBCHEM_MMFF94_ENERGY>
78.9083

> <PUBCHEM_FEATURE_SELFOVERLAP>
45.671

> <PUBCHEM_SHAPE_FINGERPRINT>
11963148 33 18337948021039059799
13533116 47 18342175578764242040
13551218 46 18342455950446086375
13782708 43 17775281707837341013
14347332 77 18342453716947476737
14617045 38 18340493356096531502
14849402 71 11311765173806581726
14866123 147 17910393883761635137
14910302 57 18336253604900628172
14931854 50 18262246521597815990
15183329 4 18411139156009302433
15250474 111 18412265030267595478
15475509 35 18130781270248716328
15799311 1 18339943570207459521
17492 89 18196656181918806350
17909252 39 18341894074339978488
19958102 18 18333722516643828893
20567600 247 18413669106305120136
21279426 13 18335975373151551877
21304303 94 18114181947731303682
21682296 61 18411982456064243243
2215653 11 18339357573850067253
23522609 53 18126880215837058369
23559900 14 18194962065938462377
23569914 152 17618749515989965293
23569943 247 18343301427823437771
24771750 20 17174071103027316837
3004659 81 18187363221267574464
345986 75 17489871505542770224
34797466 226 16950568821804358781
3729539 64 18411416203038462763
397830 11 10519694648966417013
439807 62 18336547127244376939
46194498 28 17676486194035153908
463206 1 18200306748836997454
465052 167 18060142059058929204
59682541 52 18410003343249310367
6433294 58 18412827984732456802
960060 61 18334296500363244252

> <PUBCHEM_SHAPE_MULTIPOLES>
523.98
16.9
3.95
1.16
11.49
2.42
-0.11
9.43
-3.11
-5.31
0.12
-0.61
-0.04
-0.34

> <PUBCHEM_SHAPE_SELFOVERLAP>
1123.778

> <PUBCHEM_SHAPE_VOLUME>
292.2

> <PUBCHEM_COORDINATE_TYPE>
2
5
10

$$$$
118663046
  -OEChem-05102415133D

 40 42  0     0  0  0  0  0  0999 V2000
   -3.6374   -2.3600   -1.4567 Cl  0  0  0  0  0  0  0  0  0  0  0  0
   -4.0334    2.4241    0.2581 F   0  0  0  0  0  0  0  0  0  0  0  0
   -5.4894   -2.8243    0.7768 F   0  0  0  0  0  0  0  0  0  0  0  0
    4.0044    1.9476    0.2145 O   0  0  0  0  0  0  0  0  0  0  0  0
   -1.0481    2.1861   -0.0812 O   0  0  0  0  0  0  0  0  0  0  0  0
   -1.5658    0.2798   -1.2959 N   0  0  0  0  0  0  0  0  0  0  0  0
    6.4901   -1.8574   -0.1826 N   0  0  0  0  0  0  0  0  0  0  0  0
    6.6576   -1.3259    1.0403 N   0  0  0  0  0  0  0  0  0  0  0  0
    3.2631   -0.3288   -0.0006 C   0  0  0  0  0  0  0  0  0  0  0  0
    0.6588    0.6034   -0.3640 C   0  0  0  0  0  0  0  0  0  0  0  0
   -2.9360    0.6344   -1.5885 C   0  0  0  0  0  0  0  0  0  0  0  0
    3.0036    1.0417    0.0199 C   0  0  0  0  0  0  0  0  0  0  0  0
    1.7014    1.5077   -0.1618 C   0  0  0  0  0  0  0  0  0  0  0  0
   -3.8763    0.1816   -0.5092 C   0  0  0  0  0  0  0  0  0  0  0  0
    4.5978   -0.8308    0.1863 C   0  0  0  0  0  0  0  0  0  0  0  0
    2.2205   -1.2331   -0.2031 C   0  0  0  0  0  0  0  0  0  0  0  0
    0.9184   -0.7671   -0.3846 C   0  0  0  0  0  0  0  0  0  0  0  0
   -0.6991    1.0888   -0.5516 C   0  0  0  0  0  0  0  0  0  0  0  0
   -4.2466   -1.1568   -0.3782 C   0  0  0  0  0  0  0  0  0  0  0  0
   -4.3823    1.1349    0.3746 C   0  0  0  0  0  0  0  0  0  0  0  0
    5.2732   -1.5900   -0.7378 C   0  0  0  0  0  0  0  0  0  0  0  0
    5.4984   -0.6999    1.2603 C   0  0  0  0  0  0  0  0  0  0  0  0
   -5.1229   -1.5421    0.6364 C   0  0  0  0  0  0  0  0  0  0  0  0
   -5.2584    0.7496    1.3895 C   0  0  0  0  0  0  0  0  0  0  0  0
   -5.6288   -0.5887    1.5203 C   0  0  0  0  0  0  0  0  0  0  0  0
    3.6373    3.3252    0.2187 C   0  0  0  0  0  0  0  0  0  0  0  0
   -3.2048    0.1940   -2.5551 H   0  0  0  0  0  0  0  0  0  0  0  0
   -2.9920    1.7201   -1.7306 H   0  0  0  0  0  0  0  0  0  0  0  0
    1.4439    2.5612   -0.1619 H   0  0  0  0  0  0  0  0  0  0  0  0
    2.3988   -2.3060   -0.2111 H   0  0  0  0  0  0  0  0  0  0  0  0
    0.1325   -1.5069   -0.5053 H   0  0  0  0  0  0  0  0  0  0  0  0
   -1.2296   -0.5841   -1.7076 H   0  0  0  0  0  0  0  0  0  0  0  0
    5.0108   -1.9582   -1.7200 H   0  0  0  0  0  0  0  0  0  0  0  0
    5.3621   -0.1760    2.1961 H   0  0  0  0  0  0  0  0  0  0  0  0
   -5.6520    1.4919    2.0776 H   0  0  0  0  0  0  0  0  0  0  0  0
   -6.3109   -0.8888    2.3103 H   0  0  0  0  0  0  0  0  0  0  0  0
    7.2506   -2.3937   -0.5810 H   0  0  0  0  0  0  0  0  0  0  0  0
    4.5539    3.9001    0.3880 H   0  0  0  0  0  0  0  0  0  0  0  0
    3.2424    3.6428   -0.7525 H   0  0  0  0  0  0  0  0  0  0  0  0
    2.9605    3.5624    1.0467 H   0  0  0  0  0  0  0  0  0  0  0  0
  1 19  1  0  0  0  0
  2 20  1  0  0  0  0
  3 23  1  0  0  0  0
  4 12  1  0  0  0  0
  4 26  1  0  0  0  0
  5 18  2  0  0  0  0
  6 11  1  0  0  0  0
  6 18  1  0  0  0  0
  6 32  1  0  0  0  0
  7  8  1  0  0  0  0
  7 21  1  0  0  0  0
  7 37  1  0  0  0  0
  8 22  2  0  0  0  0
  9 12  2  0  0  0  0
  9 15  1  0  0  0  0
  9 16  1  0  0  0  0
 10 13  2  0  0  0  0
 10 17  1  0  0  0  0
 10 18  1  0  0  0  0
 11 14  1  0  0  0  0
 11 27  1  0  0  0  0
 11 28  1  0  0  0  0
 12 13  1  0  0  0  0
 13 29  1  0  0  0  0
 14 19  1  0  0  0  0
 14 20  2  0  0  0  0
 15 21  2  0  0  0  0
 15 22  1  0  0  0  0
 16 17  2  0  0  0  0
 16 30  1  0  0  0  0
 17 31  1  0  0  0  0
 19 23  2  0  0  0  0
 20 24  1  0  0  0  0
 21 33  1  0  0  0  0
 22 34  1  0  0  0  0
 23 25  1  0  0  0  0
 24 25  2  0  0  0  0
 24 35  1  0  0  0  0
 25 36  1  0  0  0  0
 26 38  1  0  0  0  0
 26 39  1  0  0  0  0
 26 40  1  0  0  0  0
M  END
> <PUBCHEM_COMPOUND_CID>
118663046

> <PUBCHEM_CONFORMER_RMSD>
0.8

> <PUBCHEM_CONFORMER_DIVERSEORDER>
2
48
78
8
38
47
70
76
74
60
16
64
43
65
62
66
41
45
73
54
59
52
17
39
31
14
42
6
57
26
51
40
10
77
71
69
33
36
24
44
37
72
53
61
13
7
56
25
49
28
75
29
67
19
30
4
63
1
50
55
18
22
34
12
11
23
35
20
68
32
3
27
46
58
15
5
9
21

> <PUBCHEM_MMFF94_PARTIAL_CHARGES>
35
1 -0.18
10 0.09
11 0.44
12 0.08
13 -0.15
14 -0.14
15 -0.05
16 -0.15
17 -0.15
18 0.54
19 0.18
2 -0.19
20 0.19
21 -0.3
22 0.14
23 0.19
24 -0.15
25 -0.15
26 0.28
29 0.15
3 -0.19
30 0.15
31 0.15
32 0.37
33 0.15
34 0.15
35 0.15
36 0.15
37 0.27
4 -0.36
5 -0.57
6 -0.73
7 0.3
8 -0.71
9 0.05

> <PUBCHEM_EFFECTIVE_ROTOR_COUNT>
6

> <PUBCHEM_PHARMACOPHORE_FEATURES>
8
1 4 acceptor
1 5 acceptor
1 6 donor
1 7 donor
1 8 acceptor
5 7 8 15 21 22 rings
6 14 19 20 23 24 25 rings
6 9 10 12 13 16 17 rings

> <PUBCHEM_HEAVY_ATOM_COUNT>
26

> <PUBCHEM_ATOM_DEF_STEREO_COUNT>
0

> <PUBCHEM_ATOM_UDEF_STEREO_COUNT>
0

> <PUBCHEM_BOND_DEF_STEREO_COUNT>
0

> <PUBCHEM_BOND_UDEF_STEREO_COUNT>
0

> <PUBCHEM_ISOTOPIC_ATOM_COUNT>
0

> <PUBCHEM_COMPONENT_COUNT>
1

> <PUBCHEM_CACTVS_TAUTO_COUNT>
9

> <PUBCHEM_CONFORMER_ID>
0712A78600000002

> <PUBCHEM_MMFF94_ENERGY>
68.9513

> <PUBCHEM_FEATURE_SELFOVERLAP>
40.597

> <PUBCHEM_SHAPE_FINGERPRINT>
11405975 8 18343300383517773140
11545043 162 17967807223978089964
12107183 9 18271252603881355385
12166972 35 17167870751083719748
12422481 6 17917991651032827118
12616971 3 18131349730238996316
13782708 43 17603861174956614698
14341114 176 18409736192199781685
14849402 71 18339924935083620056
14950920 106 18272654567100626697
14955137 171 18131350761790802260
15021287 119 18342728629081848996
15238133 3 16917075455316901704
15250474 111 18058721532637505807
15348495 7 18131063857220978120
15880784 105 18336270128019169649
16110190 28 18272092716574358631
16126227 98 17691126363369477928
17349148 13 16877666742432151052
17780758 139 18343019978483694041
17844677 252 18412829083547947317
1813 80 17386006221540707141
18222031 100 16370720452552903316
18927931 339 17530685381819549463
19377110 9 18129091397938510632
19841028 212 18190735535247657307
20028762 73 18413668028374668502
21065198 48 18200597011833461541
21150785 3 14851615375392620982
21403212 168 18339088078328202481
2303208 19 17894909629047611476
23402539 116 15792014420000932124
23522609 53 17897758420910857156
23559900 14 18336816524731197580
2838139 119 10519980452684624986
392239 28 18411144636429634099
4093350 32 17060344063692322204
4169191 19 13038604294223226794
465052 167 18409168788692231286
484985 159 18260258656346636535
5104073 3 18342737446338796240
636775 8 18265903450613273374
7495541 125 18259703389704098564
8863177 126 18187367666078794954

> <PUBCHEM_SHAPE_MULTIPOLES>
495.71
16.87
2.81
1.23
5.4
0.89
0.04
-8.07
5.94
0.48
-0.05
-1.23
-0.3
-0.2

> <PUBCHEM_SHAPE_SELFOVERLAP>
1077.148

> <PUBCHEM_SHAPE_VOLUME>
272.1

> <PUBCHEM_COORDINATE_TYPE>
2
5
10

$$$$
118663032
  -OEChem-05102415133D

 62 65  0     0  0  0  0  0  0999 V2000
   -5.7534   -0.8573   -0.4661 O   0  0  0  0  0  0  0  0  0  0  0  0
    2.7401   -1.2588    0.5639 O   0  0  0  0  0  0  0  0  0  0  0  0
    0.2927    4.0054   -0.5063 O   0  0  0  0  0  0  0  0  0  0  0  0
   -1.3078   -4.2381   -0.1719 N   0  0  0  0  0  0  0  0  0  0  0  0
   -3.6181   -1.4064    0.2519 N   0  0  0  0  0  0  0  0  0  0  0  0
   -0.4827    2.5781    1.1492 N   0  0  0  0  0  0  0  0  0  0  0  0
    7.2355   -0.8181   -0.0777 N   0  0  0  0  0  0  0  0  0  0  0  0
    6.7261   -1.6776   -0.9766 N   0  0  0  0  0  0  0  0  0  0  0  0
   -3.8359   -2.8324    0.3500 C   0  0  0  0  0  0  0  0  0  0  0  0
   -3.5382   -3.5292   -0.9797 C   0  0  0  0  0  0  0  0  0  0  0  0
   -2.9862   -3.4449    1.4660 C   0  0  0  0  0  0  0  0  0  0  0  0
   -2.0360   -3.5943   -1.2735 C   0  0  0  0  0  0  0  0  0  0  0  0
   -1.5026   -3.5125    1.0904 C   0  0  0  0  0  0  0  0  0  0  0  0
    0.1163   -4.3397   -0.4898 C   0  0  0  0  0  0  0  0  0  0  0  0
   -4.6115   -0.5299   -0.1539 C   0  0  0  0  0  0  0  0  0  0  0  0
   -4.2210    0.9014   -0.2282 C   0  0  0  0  0  0  0  0  0  0  0  0
   -3.1959    1.3877    0.5834 C   0  0  0  0  0  0  0  0  0  0  0  0
   -4.8798    1.7593   -1.1090 C   0  0  0  0  0  0  0  0  0  0  0  0
   -2.8296    2.7319    0.5141 C   0  0  0  0  0  0  0  0  0  0  0  0
   -1.7346    3.2526    1.3823 C   0  0  0  0  0  0  0  0  0  0  0  0
   -4.5137    3.1035   -1.1782 C   0  0  0  0  0  0  0  0  0  0  0  0
   -3.4885    3.5899   -0.3668 C   0  0  0  0  0  0  0  0  0  0  0  0
    1.6700    2.1976    0.0712 C   0  0  0  0  0  0  0  0  0  0  0  0
    0.4395    3.0184    0.2098 C   0  0  0  0  0  0  0  0  0  0  0  0
    3.9803    0.6562   -0.1928 C   0  0  0  0  0  0  0  0  0  0  0  0
    2.7960    0.0675    0.2511 C   0  0  0  0  0  0  0  0  0  0  0  0
    1.6409    0.8384    0.3831 C   0  0  0  0  0  0  0  0  0  0  0  0
    2.8543    2.7862   -0.3726 C   0  0  0  0  0  0  0  0  0  0  0  0
    4.0094    2.0155   -0.5043 C   0  0  0  0  0  0  0  0  0  0  0  0
    5.1821   -0.1204   -0.3376 C   0  0  0  0  0  0  0  0  0  0  0  0
    6.3513    0.1340    0.3370 C   0  0  0  0  0  0  0  0  0  0  0  0
    5.4716   -1.2463   -1.1315 C   0  0  0  0  0  0  0  0  0  0  0  0
    3.0294   -1.6173    1.9130 C   0  0  0  0  0  0  0  0  0  0  0  0
   -4.8940   -2.9873    0.5942 H   0  0  0  0  0  0  0  0  0  0  0  0
   -4.0485   -3.0201   -1.8062 H   0  0  0  0  0  0  0  0  0  0  0  0
   -3.9368   -4.5517   -0.9437 H   0  0  0  0  0  0  0  0  0  0  0  0
   -3.3469   -4.4609    1.6739 H   0  0  0  0  0  0  0  0  0  0  0  0
   -3.1015   -2.8704    2.3931 H   0  0  0  0  0  0  0  0  0  0  0  0
   -1.6485   -2.5847   -1.4629 H   0  0  0  0  0  0  0  0  0  0  0  0
   -1.8963   -4.1717   -2.1956 H   0  0  0  0  0  0  0  0  0  0  0  0
   -0.9746   -4.0337    1.8986 H   0  0  0  0  0  0  0  0  0  0  0  0
   -1.0786   -2.5018    1.0328 H   0  0  0  0  0  0  0  0  0  0  0  0
   -2.6696   -1.0725    0.3834 H   0  0  0  0  0  0  0  0  0  0  0  0
    0.2661   -4.9247   -1.4040 H   0  0  0  0  0  0  0  0  0  0  0  0
    0.6528   -4.8638    0.3090 H   0  0  0  0  0  0  0  0  0  0  0  0
    0.5807   -3.3566   -0.6291 H   0  0  0  0  0  0  0  0  0  0  0  0
   -2.6909    0.7502    1.3041 H   0  0  0  0  0  0  0  0  0  0  0  0
   -5.6777    1.3986   -1.7526 H   0  0  0  0  0  0  0  0  0  0  0  0
   -1.5875    4.3290    1.2362 H   0  0  0  0  0  0  0  0  0  0  0  0
   -1.9995    3.1049    2.4355 H   0  0  0  0  0  0  0  0  0  0  0  0
   -5.0258    3.7712   -1.8649 H   0  0  0  0  0  0  0  0  0  0  0  0
   -3.2139    4.6392   -0.4330 H   0  0  0  0  0  0  0  0  0  0  0  0
   -0.2783    1.7794    1.7402 H   0  0  0  0  0  0  0  0  0  0  0  0
    0.7282    0.3410    0.6999 H   0  0  0  0  0  0  0  0  0  0  0  0
    2.8972    3.8443   -0.6173 H   0  0  0  0  0  0  0  0  0  0  0  0
    4.9208    2.4941   -0.8555 H   0  0  0  0  0  0  0  0  0  0  0  0
    6.6339    0.8861    1.0607 H   0  0  0  0  0  0  0  0  0  0  0  0
    4.8237   -1.7731   -1.8180 H   0  0  0  0  0  0  0  0  0  0  0  0
    8.1982   -0.9400    0.2107 H   0  0  0  0  0  0  0  0  0  0  0  0
    2.9860   -2.7070    1.9934 H   0  0  0  0  0  0  0  0  0  0  0  0
    2.2832   -1.1883    2.5892 H   0  0  0  0  0  0  0  0  0  0  0  0
    4.0311   -1.2857    2.2028 H   0  0  0  0  0  0  0  0  0  0  0  0
  1 15  2  0  0  0  0
  2 26  1  0  0  0  0
  2 33  1  0  0  0  0
  3 24  2  0  0  0  0
  4 12  1  0  0  0  0
  4 13  1  0  0  0  0
  4 14  1  0  0  0  0
  5  9  1  0  0  0  0
  5 15  1  0  0  0  0
  5 43  1  0  0  0  0
  6 20  1  0  0  0  0
  6 24  1  0  0  0  0
  6 53  1  0  0  0  0
  7  8  1  0  0  0  0
  7 31  1  0  0  0  0
  7 59  1  0  0  0  0
  8 32  2  0  0  0  0
  9 10  1  0  0  0  0
  9 11  1  0  0  0  0
  9 34  1  0  0  0  0
 10 12  1  0  0  0  0
 10 35  1  0  0  0  0
 10 36  1  0  0  0  0
 11 13  1  0  0  0  0
 11 37  1  0  0  0  0
 11 38  1  0  0  0  0
 12 39  1  0  0  0  0
 12 40  1  0  0  0  0
 13 41  1  0  0  0  0
 13 42  1  0  0  0  0
 14 44  1  0  0  0  0
 14 45  1  0  0  0  0
 14 46  1  0  0  0  0
 15 16  1  0  0  0  0
 16 17  1  0  0  0  0
 16 18  2  0  0  0  0
 17 19  2  0  0  0  0
 17 47  1  0  0  0  0
 18 21  1  0  0  0  0
 18 48  1  0  0  0  0
 19 20  1  0  0  0  0
 19 22  1  0  0  0  0
 20 49  1  0  0  0  0
 20 50  1  0  0  0  0
 21 22  2  0  0  0  0
 21 51  1  0  0  0  0
 22 52  1  0  0  0  0
 23 24  1  0  0  0  0
 23 27  2  0  0  0  0
 23 28  1  0  0  0  0
 25 26  2  0  0  0  0
 25 29  1  0  0  0  0
 25 30  1  0  0  0  0
 26 27  1  0  0  0  0
 27 54  1  0  0  0  0
 28 29  2  0  0  0  0
 28 55  1  0  0  0  0
 29 56  1  0  0  0  0
 30 31  2  0  0  0  0
 30 32  1  0  0  0  0
 31 57  1  0  0  0  0
 32 58  1  0  0  0  0
 33 60  1  0  0  0  0
 33 61  1  0  0  0  0
 33 62  1  0  0  0  0
M  END
> <PUBCHEM_COMPOUND_CID>
118663032

> <PUBCHEM_CONFORMER_RMSD>
1.2

> <PUBCHEM_CONFORMER_DIVERSEORDER>
1
78
62
50
15
92
13
111
45
55
84
99
112
68
87
95
9
21
97
18
105
103
38
123
40
120
53
85
65
16
48
118
51
94
47
8
69
54
23
61
31
67
128
96
25
129
11
20
82
73
114
36
100
91
4
81
46
60
108
34
71
57
116
101
88
24
74
115
124
37
110
98
106
41
79
102
3
77
89
125
80
70
29
66
30
76
43
26
121
119
56
90
22
7
58
39
113
109
2
83
107
35
63
72
122
44
104
28
86
52
126
127
33
12
5
75
19
32
27
117
6
64
17
42
14
93
49
59
10

> <PUBCHEM_MMFF94_PARTIAL_CHARGES>
43
1 -0.57
12 0.27
13 0.27
14 0.27
15 0.54
16 0.09
17 -0.15
18 -0.15
19 -0.14
2 -0.36
20 0.44
21 -0.15
22 -0.15
23 0.09
24 0.54
25 0.05
26 0.08
27 -0.15
28 -0.15
29 -0.15
3 -0.57
30 -0.05
31 -0.3
32 0.14
33 0.28
4 -0.81
43 0.37
47 0.15
48 0.15
5 -0.73
51 0.15
52 0.15
53 0.37
54 0.15
55 0.15
56 0.15
57 0.15
58 0.15
59 0.27
6 -0.73
7 0.3
8 -0.71
9 0.3

> <PUBCHEM_EFFECTIVE_ROTOR_COUNT>
10.2

> <PUBCHEM_PHARMACOPHORE_FEATURES>
12
1 1 acceptor
1 2 acceptor
1 3 acceptor
1 4 cation
1 5 donor
1 6 donor
1 7 donor
1 8 acceptor
5 7 8 30 31 32 rings
6 16 17 18 19 21 22 rings
6 23 25 26 27 28 29 rings
6 4 9 10 11 12 13 rings

> <PUBCHEM_HEAVY_ATOM_COUNT>
33

> <PUBCHEM_ATOM_DEF_STEREO_COUNT>
0

> <PUBCHEM_ATOM_UDEF_STEREO_COUNT>
0

> <PUBCHEM_BOND_DEF_STEREO_COUNT>
0

> <PUBCHEM_BOND_UDEF_STEREO_COUNT>
0

> <PUBCHEM_ISOTOPIC_ATOM_COUNT>
0

> <PUBCHEM_COMPONENT_COUNT>
1

> <PUBCHEM_CACTVS_TAUTO_COUNT>
18

> <PUBCHEM_CONFORMER_ID>
0712A77800000001

> <PUBCHEM_MMFF94_ENERGY>
81.2159

> <PUBCHEM_FEATURE_SELFOVERLAP>
60.898

> <PUBCHEM_SHAPE_FINGERPRINT>
10305334 12 18129954386492509013
10462674 296 17263558211492083462
10928967 22 17405729445681767335
11513181 2 18056757624639939927
12645989 146 18127975415264661951
14251757 5 18409447003276834075
14279260 333 18113899347716384826
14289585 56 17240760653764681316
14725015 67 18340484577880048483
14931854 50 18334846209069337023
15001296 14 18263358243110375528
15264996 142 18190202147152480682
15297060 5 18201440207891114681
15320467 1 18411138030480249823
15351339 4 18263073336692588171
15781502 589 18269274569061912119
16719943 64 18410009892831993011
17627616 140 18119811300851837499
17852330 28 13101728046979011790
19301676 85 18122336042112506983
19311894 1 18411705382674572059
19611394 137 18130498722211073432
20775438 99 17049319419007844911
20775530 9 18049721021300504017
21133410 38 15748687494806171955
22393880 68 18334573542670000600
23428019 142 17821730571762204834
23559900 14 18341885299084703704
325973 47 18268151048597904847
3383291 50 18341326769169048547
4573279 73 18046917245396963524
463206 1 18337959020750465873
474144 1 17823676608775184027
5085150 59 18340191995358209995
5265222 85 18335706018478157333
70634741 139 18411423946943962800

> <PUBCHEM_SHAPE_MULTIPOLES>
636.61
14.61
6.74
1.24
17.95
3.04
-0.23
2.14
3.62
-7.55
0.25
-0.23
0.42
0.54

> <PUBCHEM_SHAPE_SELFOVERLAP>
1369.255

> <PUBCHEM_SHAPE_VOLUME>
350.5

> <PUBCHEM_COORDINATE_TYPE>
2
5
10

$$$$
90354032
  -OEChem-05102415133D

 51 53  0     0  0  0  0  0  0999 V2000
    4.0682   -1.9282    1.9676 Cl  0  0  0  0  0  0  0  0  0  0  0  0
   -1.9733   -0.9004    0.9035 O   0  0  0  0  0  0  0  0  0  0  0  0
    2.5609    2.5699   -0.6473 O   0  0  0  0  0  0  0  0  0  0  0  0
   -3.9425   -2.5156   -0.3345 N   0  0  0  0  0  0  0  0  0  0  0  0
    2.6926    1.0121    1.0653 N   0  0  0  0  0  0  0  0  0  0  0  0
   -5.7096    1.1350   -0.7464 N   0  0  0  0  0  0  0  0  0  0  0  0
   -5.8516    0.9127    0.5714 N   0  0  0  0  0  0  0  0  0  0  0  0
   -1.4249    0.2842    0.4858 C   0  0  0  0  0  0  0  0  0  0  0  0
   -2.2270    1.3338    0.0376 C   0  0  0  0  0  0  0  0  0  0  0  0
   -2.7267   -3.0758    0.2546 C   0  0  0  0  0  0  0  0  0  0  0  0
   -1.5881   -2.0703    0.1936 C   0  0  0  0  0  0  0  0  0  0  0  0
    0.5473    1.6236    0.0931 C   0  0  0  0  0  0  0  0  0  0  0  0
   -0.0378    0.4291    0.5135 C   0  0  0  0  0  0  0  0  0  0  0  0
   -3.6590    1.2063    0.0024 C   0  0  0  0  0  0  0  0  0  0  0  0
   -1.6418    2.5282   -0.3832 C   0  0  0  0  0  0  0  0  0  0  0  0
   -0.2548    2.6731   -0.3552 C   0  0  0  0  0  0  0  0  0  0  0  0
    1.9933    1.7756    0.1235 C   0  0  0  0  0  0  0  0  0  0  0  0
    4.1269    1.0693    1.2341 C   0  0  0  0  0  0  0  0  0  0  0  0
    4.8383    0.1073    0.3271 C   0  0  0  0  0  0  0  0  0  0  0  0
   -5.1231   -3.2215    0.1621 C   0  0  0  0  0  0  0  0  0  0  0  0
   -3.8820   -2.5845   -1.7940 C   0  0  0  0  0  0  0  0  0  0  0  0
   -4.4159    1.3171   -1.1384 C   0  0  0  0  0  0  0  0  0  0  0  0
   -4.5956    0.9575    1.0235 C   0  0  0  0  0  0  0  0  0  0  0  0
    4.8607   -1.2632    0.5860 C   0  0  0  0  0  0  0  0  0  0  0  0
    5.4885    0.6153   -0.7978 C   0  0  0  0  0  0  0  0  0  0  0  0
    5.5332   -2.1257   -0.2797 C   0  0  0  0  0  0  0  0  0  0  0  0
    6.1607   -0.2474   -1.6637 C   0  0  0  0  0  0  0  0  0  0  0  0
    6.1834   -1.6178   -1.4046 C   0  0  0  0  0  0  0  0  0  0  0  0
   -2.4373   -4.0236   -0.2158 H   0  0  0  0  0  0  0  0  0  0  0  0
   -2.9051   -3.2873    1.3175 H   0  0  0  0  0  0  0  0  0  0  0  0
   -1.3128   -1.8414   -0.8430 H   0  0  0  0  0  0  0  0  0  0  0  0
   -0.7071   -2.4995    0.6852 H   0  0  0  0  0  0  0  0  0  0  0  0
    0.5640   -0.4116    0.8461 H   0  0  0  0  0  0  0  0  0  0  0  0
   -2.2484    3.3613   -0.7311 H   0  0  0  0  0  0  0  0  0  0  0  0
    0.1811    3.6138   -0.6817 H   0  0  0  0  0  0  0  0  0  0  0  0
    4.3578    0.8650    2.2854 H   0  0  0  0  0  0  0  0  0  0  0  0
    4.4593    2.0976    1.0466 H   0  0  0  0  0  0  0  0  0  0  0  0
    2.1903    0.4164    1.7144 H   0  0  0  0  0  0  0  0  0  0  0  0
   -6.0363   -2.7899   -0.2630 H   0  0  0  0  0  0  0  0  0  0  0  0
   -5.0997   -4.2897   -0.0824 H   0  0  0  0  0  0  0  0  0  0  0  0
   -5.2083   -3.1159    1.2494 H   0  0  0  0  0  0  0  0  0  0  0  0
   -4.7944   -2.1627   -2.2316 H   0  0  0  0  0  0  0  0  0  0  0  0
   -3.7765   -3.6129   -2.1585 H   0  0  0  0  0  0  0  0  0  0  0  0
   -3.0554   -1.9884   -2.1927 H   0  0  0  0  0  0  0  0  0  0  0  0
   -4.1633    1.5021   -2.1733 H   0  0  0  0  0  0  0  0  0  0  0  0
   -4.4195    0.8063    2.0793 H   0  0  0  0  0  0  0  0  0  0  0  0
    5.4804    1.6800   -1.0158 H   0  0  0  0  0  0  0  0  0  0  0  0
   -6.5415    1.1481   -1.3232 H   0  0  0  0  0  0  0  0  0  0  0  0
    5.5601   -3.1961   -0.0921 H   0  0  0  0  0  0  0  0  0  0  0  0
    6.6665    0.1479   -2.5398 H   0  0  0  0  0  0  0  0  0  0  0  0
    6.7070   -2.2893   -2.0788 H   0  0  0  0  0  0  0  0  0  0  0  0
  1 24  1  0  0  0  0
  2  8  1  0  0  0  0
  2 11  1  0  0  0  0
  3 17  2  0  0  0  0
  4 10  1  0  0  0  0
  4 20  1  0  0  0  0
  4 21  1  0  0  0  0
  5 17  1  0  0  0  0
  5 18  1  0  0  0  0
  5 38  1  0  0  0  0
  6  7  1  0  0  0  0
  6 22  1  0  0  0  0
  6 48  1  0  0  0  0
  7 23  2  0  0  0  0
  8  9  2  0  0  0  0
  8 13  1  0  0  0  0
  9 14  1  0  0  0  0
  9 15  1  0  0  0  0
 10 11  1  0  0  0  0
 10 29  1  0  0  0  0
 10 30  1  0  0  0  0
 11 31  1  0  0  0  0
 11 32  1  0  0  0  0
 12 13  2  0  0  0  0
 12 16  1  0  0  0  0
 12 17  1  0  0  0  0
 13 33  1  0  0  0  0
 14 22  2  0  0  0  0
 14 23  1  0  0  0  0
 15 16  2  0  0  0  0
 15 34  1  0  0  0  0
 16 35  1  0  0  0  0
 18 19  1  0  0  0  0
 18 36  1  0  0  0  0
 18 37  1  0  0  0  0
 19 24  1  0  0  0  0
 19 25  2  0  0  0  0
 20 39  1  0  0  0  0
 20 40  1  0  0  0  0
 20 41  1  0  0  0  0
 21 42  1  0  0  0  0
 21 43  1  0  0  0  0
 21 44  1  0  0  0  0
 22 45  1  0  0  0  0
 23 46  1  0  0  0  0
 24 26  2  0  0  0  0
 25 27  1  0  0  0  0
 25 47  1  0  0  0  0
 26 28  1  0  0  0  0
 26 49  1  0  0  0  0
 27 28  2  0  0  0  0
 27 50  1  0  0  0  0
 28 51  1  0  0  0  0
M  END
> <PUBCHEM_COMPOUND_CID>
90354032

> <PUBCHEM_CONFORMER_RMSD>
1

> <PUBCHEM_CONFORMER_DIVERSEORDER>
1
46
53
41
48
55
83
47
69
40
13
14
79
3
38
76
52
29
75
82
54
17
31
78
84
4
77
73
58
30
21
7
2
61
12
66
5
65
28
9
43
10
64
24
81
44
19
80
27
20
57
74
15
39
59
63
71
67
51
37
25
6
26
72
33
22
35
70
49
36
62
50
68
18
23
16
56
34
42
32
60
45
11
8

> <PUBCHEM_MMFF94_PARTIAL_CHARGES>
39
1 -0.18
10 0.27
11 0.28
12 0.09
13 -0.15
14 -0.05
15 -0.15
16 -0.15
17 0.54
18 0.44
19 -0.14
2 -0.36
20 0.27
21 0.27
22 -0.3
23 0.14
24 0.18
25 -0.15
26 -0.15
27 -0.15
28 -0.15
3 -0.57
33 0.15
34 0.15
35 0.15
38 0.37
4 -0.81
45 0.15
46 0.15
47 0.15
48 0.27
49 0.15
5 -0.73
50 0.15
51 0.15
6 0.3
7 -0.71
8 0.08
9 0.05

> <PUBCHEM_EFFECTIVE_ROTOR_COUNT>
9

> <PUBCHEM_PHARMACOPHORE_FEATURES>
9
1 2 acceptor
1 3 acceptor
1 4 cation
1 5 donor
1 6 donor
1 7 acceptor
5 6 7 14 22 23 rings
6 19 24 25 26 27 28 rings
6 8 9 12 13 15 16 rings

> <PUBCHEM_HEAVY_ATOM_COUNT>
28

> <PUBCHEM_ATOM_DEF_STEREO_COUNT>
0

> <PUBCHEM_ATOM_UDEF_STEREO_COUNT>
0

> <PUBCHEM_BOND_DEF_STEREO_COUNT>
0

> <PUBCHEM_BOND_UDEF_STEREO_COUNT>
0

> <PUBCHEM_ISOTOPIC_ATOM_COUNT>
0

> <PUBCHEM_COMPONENT_COUNT>
1

> <PUBCHEM_CACTVS_TAUTO_COUNT>
7

> <PUBCHEM_CONFORMER_ID>
0562B17000000001

> <PUBCHEM_MMFF94_ENERGY>
75.0246

> <PUBCHEM_FEATURE_SELFOVERLAP>
45.671

> <PUBCHEM_SHAPE_FINGERPRINT>
11524674 6 17489867112155132263
117089 54 17757843603745825803
11796584 16 18344149189678602284
12422481 6 17561366209509126446
12643181 29 18412826855103427414
12788726 201 18264489482010194648
13533116 47 18059852857668337144
13782708 43 17346307233111674469
14068700 686 17762335117049810368
14347332 77 18267861864782632311
14617045 38 18335427820560609946
14790565 3 18050003294819774737
14910302 57 18410284779903917004
15001296 14 18335411400610655816
15042514 8 18410293653448645521
15183329 4 18334852827033905711
15361156 5 18261686942808443996
15510800 12 17702961219157577174
15537594 2 18187086135330644266
15799311 1 18199485306545495278
17349148 13 18131633348589380656
19319366 153 17531245003131483122
19958102 18 18262502776088597871
21307412 95 18269843034089925662
21703447 108 17981876755197962209
21781051 124 18041862670068103707
2215653 11 18412261705794395732
23522609 53 18124908718642894680
23559900 14 18342735251964208456
23576562 1 17894912992614101917
25122255 55 17989211464101413510
3004659 81 17896039859051498440
34797466 226 15068920606895495560
404807 14 15190255962537349975
4073 2 18341327903124499296
44062 13 18412544318599634895
5081480 168 16008750259548042661
59755656 215 18341048501994324861
59755656 520 18341899554866272057
6823239 73 18343861113796081210
86090 222 16844742924149869342
9896288 288 17986966155086457041

> <PUBCHEM_SHAPE_MULTIPOLES>
546.43
16.17
3.73
1.38
9.53
1.98
0.09
6.61
3.53
-3.48
0.41
1.19
0.5
-0.28

> <PUBCHEM_SHAPE_SELFOVERLAP>
1159.604

> <PUBCHEM_SHAPE_VOLUME>
307.3

> <PUBCHEM_COORDINATE_TYPE>
2
5
10

$$$$
118662960
  -OEChem-05102415133D

 50 52  0     1  0  0  0  0  0999 V2000
   -4.5090    1.9635    1.7827 F   0  0  0  0  0  0  0  0  0  0  0  0
    4.3497    2.5334   -1.4196 O   0  0  0  0  0  0  0  0  0  0  0  0
   -0.3648    2.8510    0.1818 O   0  0  0  0  0  0  0  0  0  0  0  0
   -5.3597   -2.6288   -1.1055 O   0  0  0  0  0  0  0  0  0  0  0  0
   -1.5221    0.9119   -0.3447 N   0  0  0  0  0  0  0  0  0  0  0  0
    6.1612   -2.6016   -0.4124 N   0  0  0  0  0  0  0  0  0  0  0  0
    6.3893   -2.3819    0.8938 N   0  0  0  0  0  0  0  0  0  0  0  0
   -2.8275    1.5217   -0.4599 C   0  0  2  0  0  0  0  0  0  0  0  0
    3.2887    0.7857   -0.1739 C   0  0  0  0  0  0  0  0  0  0  0  0
    3.2656   -0.5753    0.1312 C   0  0  0  0  0  0  0  0  0  0  0  0
    4.5711    1.5031   -0.4516 C   0  0  2  0  0  0  0  0  0  0  0  0
    0.8824    0.8715    0.0269 C   0  0  0  0  0  0  0  0  0  0  0  0
   -3.9214    0.5629   -0.0419 C   0  0  0  0  0  0  0  0  0  0  0  0
    2.0971    1.5090   -0.2261 C   0  0  0  0  0  0  0  0  0  0  0  0
   -0.3603    1.6250   -0.0273 C   0  0  0  0  0  0  0  0  0  0  0  0
    2.0509   -1.2129    0.3838 C   0  0  0  0  0  0  0  0  0  0  0  0
   -3.0414    2.0736   -1.8679 C   0  0  0  0  0  0  0  0  0  0  0  0
    0.8594   -0.4896    0.3319 C   0  0  0  0  0  0  0  0  0  0  0  0
    4.4800   -1.3441    0.1904 C   0  0  0  0  0  0  0  0  0  0  0  0
    5.1805    2.1248    0.8069 C   0  0  0  0  0  0  0  0  0  0  0  0
   -4.1390   -0.6043   -0.7740 C   0  0  0  0  0  0  0  0  0  0  0  0
   -4.7111    0.8446    1.0729 C   0  0  0  0  0  0  0  0  0  0  0  0
   -5.1467   -1.4899   -0.3913 C   0  0  0  0  0  0  0  0  0  0  0  0
    5.0300   -2.0019   -0.8827 C   0  0  0  0  0  0  0  0  0  0  0  0
   -5.7187   -0.0410    1.4556 C   0  0  0  0  0  0  0  0  0  0  0  0
    5.3590   -1.6132    1.2564 C   0  0  0  0  0  0  0  0  0  0  0  0
   -5.9367   -1.2081    0.7233 C   0  0  0  0  0  0  0  0  0  0  0  0
   -6.4066   -3.4890   -0.6585 C   0  0  0  0  0  0  0  0  0  0  0  0
   -2.8369    2.3848    0.2172 H   0  0  0  0  0  0  0  0  0  0  0  0
    5.3049    0.8369   -0.9148 H   0  0  0  0  0  0  0  0  0  0  0  0
    2.1060    2.5724   -0.4528 H   0  0  0  0  0  0  0  0  0  0  0  0
   -1.4486   -0.0669   -0.6018 H   0  0  0  0  0  0  0  0  0  0  0  0
    2.0146   -2.2717    0.6299 H   0  0  0  0  0  0  0  0  0  0  0  0
   -2.9576    1.2929   -2.6322 H   0  0  0  0  0  0  0  0  0  0  0  0
   -4.0303    2.5351   -1.9644 H   0  0  0  0  0  0  0  0  0  0  0  0
   -2.2898    2.8352   -2.1047 H   0  0  0  0  0  0  0  0  0  0  0  0
   -0.0602   -1.0180    0.5661 H   0  0  0  0  0  0  0  0  0  0  0  0
    5.3799    1.3769    1.5794 H   0  0  0  0  0  0  0  0  0  0  0  0
    6.1201    2.6330    0.5641 H   0  0  0  0  0  0  0  0  0  0  0  0
    4.5143    2.8855    1.2302 H   0  0  0  0  0  0  0  0  0  0  0  0
   -3.5290   -0.8387   -1.6427 H   0  0  0  0  0  0  0  0  0  0  0  0
    4.7301   -2.0982   -1.9171 H   0  0  0  0  0  0  0  0  0  0  0  0
   -6.3328    0.1796    2.3238 H   0  0  0  0  0  0  0  0  0  0  0  0
    5.2946   -1.2832    2.2838 H   0  0  0  0  0  0  0  0  0  0  0  0
   -6.7357   -1.8512    1.0759 H   0  0  0  0  0  0  0  0  0  0  0  0
    5.2024    2.9714   -1.5829 H   0  0  0  0  0  0  0  0  0  0  0  0
    6.8212   -3.1727   -0.9253 H   0  0  0  0  0  0  0  0  0  0  0  0
   -6.4354   -4.3447   -1.3411 H   0  0  0  0  0  0  0  0  0  0  0  0
   -7.3841   -2.9986   -0.7195 H   0  0  0  0  0  0  0  0  0  0  0  0
   -6.2024   -3.8852    0.3420 H   0  0  0  0  0  0  0  0  0  0  0  0
  1 22  1  0  0  0  0
  2 11  1  0  0  0  0
  2 46  1  0  0  0  0
  3 15  2  0  0  0  0
  4 23  1  0  0  0  0
  4 28  1  0  0  0  0
  5  8  1  0  0  0  0
  5 15  1  0  0  0  0
  5 32  1  0  0  0  0
  6  7  1  0  0  0  0
  6 24  1  0  0  0  0
  6 47  1  0  0  0  0
  7 26  2  0  0  0  0
  8 13  1  0  0  0  0
  8 17  1  0  0  0  0
  8 29  1  0  0  0  0
  9 10  2  0  0  0  0
  9 11  1  0  0  0  0
  9 14  1  0  0  0  0
 10 16  1  0  0  0  0
 10 19  1  0  0  0  0
 11 20  1  0  0  0  0
 11 30  1  0  0  0  0
 12 14  2  0  0  0  0
 12 15  1  0  0  0  0
 12 18  1  0  0  0  0
 13 21  1  0  0  0  0
 13 22  2  0  0  0  0
 14 31  1  0  0  0  0
 16 18  2  0  0  0  0
 16 33  1  0  0  0  0
 17 34  1  0  0  0  0
 17 35  1  0  0  0  0
 17 36  1  0  0  0  0
 18 37  1  0  0  0  0
 19 24  2  0  0  0  0
 19 26  1  0  0  0  0
 20 38  1  0  0  0  0
 20 39  1  0  0  0  0
 20 40  1  0  0  0  0
 21 23  2  0  0  0  0
 21 41  1  0  0  0  0
 22 25  1  0  0  0  0
 23 27  1  0  0  0  0
 24 42  1  0  0  0  0
 25 27  2  0  0  0  0
 25 43  1  0  0  0  0
 26 44  1  0  0  0  0
 27 45  1  0  0  0  0
 28 48  1  0  0  0  0
 28 49  1  0  0  0  0
 28 50  1  0  0  0  0
M  END
> <PUBCHEM_COMPOUND_CID>
118662960

> <PUBCHEM_CONFORMER_RMSD>
0.8

> <PUBCHEM_CONFORMER_DIVERSEORDER>
2
81
31
162
163
10
181
71
231
180
160
277
291
207
188
107
98
85
120
165
289
233
273
254
247
92
101
260
124
5
227
258
210
118
76
135
62
131
283
249
252
130
86
286
95
226
3
158
83
274
293
42
80
219
168
72
256
172
35
25
196
285
90
190
55
266
65
269
74
259
29
127
105
287
75
243
234
167
221
129
47
290
262
30
177
43
212
52
199
60
144
241
154
298
248
263
173
89
288
280
111
145
278
295
73
240
178
20
238
166
67
292
169
205
250
53
270
275
237
36
179
133
22
206
272
156
99
153
192
255
261
123
281
57
26
82
134
143
208
213
126
128
245
246
201
40
19
137
257
189
187
103
77
37
228
58
194
117
138
185
112
79
222
39
54
59
100
147
88
174
215
49
1
276
164
18
24
264
268
102
235
142
148
211
132
294
232
297
282
139
17
13
45
191
109
220
223
93
41
150
225
193
175
116
159
253
6
265
216
217
140
48
113
14
279
239
209
9
244
44
224
171
23
110
155
46
7
170
202
66
91
146
96
204
21
183
64
197
152
94
300
184
182
284
141
301
11
195
149
106
200
38
63
176
69
108
115
8
214
84
242
34
271
236
27
12
16
218
151
32
97
122
230
299
161
51
104
28
121
229
186
4
33
157
125
198
267
61
68
119
87
251
136
203
56
78
114
50
15
70
296

> <PUBCHEM_MMFF94_PARTIAL_CHARGES>
37
1 -0.19
10 0.05
11 0.42
12 0.09
13 -0.14
14 -0.15
15 0.54
16 -0.15
18 -0.15
19 -0.05
2 -0.68
21 -0.15
22 0.19
23 0.08
24 -0.3
25 -0.15
26 0.14
27 -0.15
28 0.28
3 -0.57
31 0.15
32 0.37
33 0.15
37 0.15
4 -0.36
41 0.15
42 0.15
43 0.15
44 0.15
45 0.15
46 0.4
47 0.27
5 -0.73
6 0.3
7 -0.71
8 0.44
9 -0.14

> <PUBCHEM_EFFECTIVE_ROTOR_COUNT>
7

> <PUBCHEM_PHARMACOPHORE_FEATURES>
10
1 2 acceptor
1 2 donor
1 3 acceptor
1 4 acceptor
1 5 donor
1 6 donor
1 7 acceptor
5 6 7 19 24 26 rings
6 13 21 22 23 25 27 rings
6 9 10 12 14 16 18 rings

> <PUBCHEM_HEAVY_ATOM_COUNT>
28

> <PUBCHEM_ATOM_DEF_STEREO_COUNT>
0

> <PUBCHEM_ATOM_UDEF_STEREO_COUNT>
2

> <PUBCHEM_BOND_DEF_STEREO_COUNT>
0

> <PUBCHEM_BOND_UDEF_STEREO_COUNT>
0

> <PUBCHEM_ISOTOPIC_ATOM_COUNT>
0

> <PUBCHEM_COMPONENT_COUNT>
1

> <PUBCHEM_CACTVS_TAUTO_COUNT>
9

> <PUBCHEM_CONFORMER_ID>
0712A73000000002

> <PUBCHEM_MMFF94_ENERGY>
79.3728

> <PUBCHEM_FEATURE_SELFOVERLAP>
50.748

> <PUBCHEM_SHAPE_FINGERPRINT>
10 15 13830121806683221411
10595046 47 18341335603584252649
10622 236 17698427060838187983
11963148 33 18192140710643614082
12107183 9 18198353844925569529
12166972 35 17676498211537913404
12422481 6 17346034468218156662
12596602 18 17846786242878096393
12616971 3 18131063810256048852
12895837 130 8070025584822982595
13073987 5 18201719582523601321
13103583 49 18060149725955146433
1361 4 18339361984312514550
13690498 29 17967813795763122421
13782708 43 17749668502652982346
14347332 77 18334011653335773701
15183329 4 18412266142137195775
15250474 111 18343298180532457487
15348495 7 17703783713066453299
15361156 5 17895208662030379221
15799311 1 18200050498092414054
15880784 105 18413110558803849945
16110190 28 18272090496150353543
17492 89 18410570644284073574
17780758 139 18059855022373441649
17844677 252 18260549974507363068
18222031 100 16153431644783448540
19377110 9 18271804648738868696
19841028 212 18264480853943532307
19958102 18 17385439942623900699
20028762 73 18412542089976637270
21315759 148 17274556411297346685
21315763 191 18272655610561329921
22149856 69 18341621438147480505
22393880 68 17823126844038992732
22950370 63 18341617031427001861
23522609 53 18121251776911658772
23559900 14 18263631884415371728
314194 84 18336551620086188857
34797466 226 15430331259834490197
3663271 9 18131072662025280217
397830 11 18059559300842485018
4015057 19 18041005093379087753
484985 159 18338227177676552717
5104073 3 18201717340693208440
7495541 125 18201996646816792968
7970288 3 18411415077219324639

> <PUBCHEM_SHAPE_MULTIPOLES>
536.4
18.62
3.48
1.26
3.8
1.07
0.03
13.08
1.76
-0.42
-0.71
0.96
-0.27
-1.56

> <PUBCHEM_SHAPE_SELFOVERLAP>
1160.242

> <PUBCHEM_SHAPE_VOLUME>
297.5

> <PUBCHEM_COORDINATE_TYPE>
2
5
10

$$$$
85470574
  -OEChem-05102415133D

 44 46  0     0  0  0  0  0  0999 V2000
    3.0955    0.8488    1.5798 F   0  0  0  0  0  0  0  0  0  0  0  0
    6.2406   -2.0944   -0.3973 F   0  0  0  0  0  0  0  0  0  0  0  0
   -2.7000   -1.7497   -0.8372 O   0  0  0  0  0  0  0  0  0  0  0  0
    4.9346   -1.1700    1.8402 O   0  0  0  0  0  0  0  0  0  0  0  0
    0.4692    2.8806    0.9966 O   0  0  0  0  0  0  0  0  0  0  0  0
    1.1030    1.5587   -0.8000 N   0  0  0  0  0  0  0  0  0  0  0  0
   -7.1018   -0.6724   -0.3103 N   0  0  0  0  0  0  0  0  0  0  0  0
   -6.7840   -1.7061    0.4877 N   0  0  0  0  0  0  0  0  0  0  0  0
   -3.6693    0.2329    0.1152 C   0  0  0  0  0  0  0  0  0  0  0  0
    2.4592    2.0484   -0.8984 C   0  0  0  0  0  0  0  0  0  0  0  0
   -1.1366    1.4026    0.1390 C   0  0  0  0  0  0  0  0  0  0  0  0
    3.4669    0.9440   -0.7605 C   0  0  0  0  0  0  0  0  0  0  0  0
   -2.5673   -0.4801   -0.3573 C   0  0  0  0  0  0  0  0  0  0  0  0
   -1.3010    0.1049   -0.3454 C   0  0  0  0  0  0  0  0  0  0  0  0
   -3.5049    1.5308    0.5993 C   0  0  0  0  0  0  0  0  0  0  0  0
   -4.9833   -0.3516    0.1136 C   0  0  0  0  0  0  0  0  0  0  0  0
    0.1838    2.0120    0.1532 C   0  0  0  0  0  0  0  0  0  0  0  0
   -2.2386    2.1156    0.6114 C   0  0  0  0  0  0  0  0  0  0  0  0
    3.7357    0.3935    0.4929 C   0  0  0  0  0  0  0  0  0  0  0  0
    4.1344    0.4678   -1.8890 C   0  0  0  0  0  0  0  0  0  0  0  0
    4.6722   -0.6327    0.6174 C   0  0  0  0  0  0  0  0  0  0  0  0
    5.0710   -0.5583   -1.7643 C   0  0  0  0  0  0  0  0  0  0  0  0
   -6.0584    0.1682   -0.5650 C   0  0  0  0  0  0  0  0  0  0  0  0
    5.3399   -1.1086   -0.5110 C   0  0  0  0  0  0  0  0  0  0  0  0
   -5.4887   -1.5048    0.7434 C   0  0  0  0  0  0  0  0  0  0  0  0
   -1.5142   -2.3940   -1.2970 C   0  0  0  0  0  0  0  0  0  0  0  0
    4.1418   -2.2860    2.2425 C   0  0  0  0  0  0  0  0  0  0  0  0
    2.6490    2.8204   -0.1442 H   0  0  0  0  0  0  0  0  0  0  0  0
    2.5484    2.5367   -1.8756 H   0  0  0  0  0  0  0  0  0  0  0  0
   -0.4182   -0.4351   -0.6630 H   0  0  0  0  0  0  0  0  0  0  0  0
    0.8094    0.9059   -1.5191 H   0  0  0  0  0  0  0  0  0  0  0  0
   -4.3495    2.1034    0.9759 H   0  0  0  0  0  0  0  0  0  0  0  0
   -2.1316    3.1289    0.9899 H   0  0  0  0  0  0  0  0  0  0  0  0
    3.9338    0.8855   -2.8720 H   0  0  0  0  0  0  0  0  0  0  0  0
    5.5907   -0.9295   -2.6427 H   0  0  0  0  0  0  0  0  0  0  0  0
   -6.1794    1.0390   -1.1946 H   0  0  0  0  0  0  0  0  0  0  0  0
   -4.9706   -2.2090    1.3793 H   0  0  0  0  0  0  0  0  0  0  0  0
   -8.0538   -0.6014   -0.6472 H   0  0  0  0  0  0  0  0  0  0  0  0
   -1.8080   -3.3875   -1.6525 H   0  0  0  0  0  0  0  0  0  0  0  0
   -0.7972   -2.5522   -0.4840 H   0  0  0  0  0  0  0  0  0  0  0  0
   -1.0735   -1.8729   -2.1540 H   0  0  0  0  0  0  0  0  0  0  0  0
    3.0844   -2.0072    2.2923 H   0  0  0  0  0  0  0  0  0  0  0  0
    4.2784   -3.1229    1.5503 H   0  0  0  0  0  0  0  0  0  0  0  0
    4.4690   -2.5978    3.2381 H   0  0  0  0  0  0  0  0  0  0  0  0
  1 19  1  0  0  0  0
  2 24  1  0  0  0  0
  3 13  1  0  0  0  0
  3 26  1  0  0  0  0
  4 21  1  0  0  0  0
  4 27  1  0  0  0  0
  5 17  2  0  0  0  0
  6 10  1  0  0  0  0
  6 17  1  0  0  0  0
  6 31  1  0  0  0  0
  7  8  1  0  0  0  0
  7 23  1  0  0  0  0
  7 38  1  0  0  0  0
  8 25  2  0  0  0  0
  9 13  2  0  0  0  0
  9 15  1  0  0  0  0
  9 16  1  0  0  0  0
 10 12  1  0  0  0  0
 10 28  1  0  0  0  0
 10 29  1  0  0  0  0
 11 14  2  0  0  0  0
 11 17  1  0  0  0  0
 11 18  1  0  0  0  0
 12 19  2  0  0  0  0
 12 20  1  0  0  0  0
 13 14  1  0  0  0  0
 14 30  1  0  0  0  0
 15 18  2  0  0  0  0
 15 32  1  0  0  0  0
 16 23  2  0  0  0  0
 16 25  1  0  0  0  0
 18 33  1  0  0  0  0
 19 21  1  0  0  0  0
 20 22  2  0  0  0  0
 20 34  1  0  0  0  0
 21 24  2  0  0  0  0
 22 24  1  0  0  0  0
 22 35  1  0  0  0  0
 23 36  1  0  0  0  0
 25 37  1  0  0  0  0
 26 39  1  0  0  0  0
 26 40  1  0  0  0  0
 26 41  1  0  0  0  0
 27 42  1  0  0  0  0
 27 43  1  0  0  0  0
 27 44  1  0  0  0  0
M  END
> <PUBCHEM_COMPOUND_CID>
85470574

> <PUBCHEM_CONFORMER_RMSD>
0.8

> <PUBCHEM_CONFORMER_DIVERSEORDER>
17
109
87
100
112
82
91
107
86
111
90
75
42
76
85
50
5
96
23
102
71
27
3
48
110
114
78
98
81
88
12
108
99
33
37
72
36
84
6
49
62
93
2
73
70
51
65
89
39
69
25
28
101
45
15
66
97
11
61
52
7
54
79
63
4
46
113
83
21
94
105
59
43
20
16
67
95
106
55
19
9
58
29
64
1
53
24
47
44
18
10
38
34
13
60
57
92
77
22
8
74
30
26
68
32
80
56
104
103
40
31
35
41
14

> <PUBCHEM_MMFF94_PARTIAL_CHARGES>
36
1 -0.19
10 0.44
11 0.09
12 -0.14
13 0.08
14 -0.15
15 -0.15
16 -0.05
17 0.54
18 -0.15
19 0.19
2 -0.19
20 -0.15
21 0.08
22 -0.15
23 -0.3
24 0.19
25 0.14
26 0.28
27 0.28
3 -0.36
30 0.15
31 0.37
32 0.15
33 0.15
34 0.15
35 0.15
36 0.15
37 0.15
38 0.27
4 -0.36
5 -0.57
6 -0.73
7 0.3
8 -0.71
9 0.05

> <PUBCHEM_EFFECTIVE_ROTOR_COUNT>
7

> <PUBCHEM_PHARMACOPHORE_FEATURES>
9
1 3 acceptor
1 4 acceptor
1 5 acceptor
1 6 donor
1 7 donor
1 8 acceptor
5 7 8 16 23 25 rings
6 12 19 20 21 22 24 rings
6 9 11 13 14 15 18 rings

> <PUBCHEM_HEAVY_ATOM_COUNT>
27

> <PUBCHEM_ATOM_DEF_STEREO_COUNT>
0

> <PUBCHEM_ATOM_UDEF_STEREO_COUNT>
0

> <PUBCHEM_BOND_DEF_STEREO_COUNT>
0

> <PUBCHEM_BOND_UDEF_STEREO_COUNT>
0

> <PUBCHEM_ISOTOPIC_ATOM_COUNT>
0

> <PUBCHEM_COMPONENT_COUNT>
1

> <PUBCHEM_CACTVS_TAUTO_COUNT>
9

> <PUBCHEM_CONFORMER_ID>
05182D6E00000011

> <PUBCHEM_MMFF94_ENERGY>
82.6341

> <PUBCHEM_FEATURE_SELFOVERLAP>
45.673

> <PUBCHEM_SHAPE_FINGERPRINT>
10622 236 17533482444879767810
117089 54 18196105343594610886
12166972 35 18186526522482727917
12236239 1 18261116265839670196
12422481 6 17275109457293339823
12661589 4 18191586556745915579
13533116 47 18337954592217144752
13862211 1 18273216430722506629
14347332 77 18186515484712253789
14705955 166 16271652174336758450
15001296 14 18263639722376947402
15183329 4 17749106669507226173
15188451 53 18202562852107575885
17134984 74 17676774261828445858
17349148 13 17988931080273600053
1813 80 18187365436943750316
1979834 28 17275395295687895310
20567600 234 13901906739196541929
208703 8 18188202079910152090
21033648 29 16630520687678294577
21267235 1 18341341036511660245
21315764 119 17022617577179107271
21641784 216 12540960886010701919
21682296 61 18273224075553621655
21781051 124 18263657315402073643
221357 26 14634864249935534046
235170 7 14201687412194541346
23522609 53 18050325602040596869
23559900 14 17773885370434689276
3004659 81 18408047320669431476
312425 54 15913333498429169295
3383291 50 18343022211762134631
351380 3 18335423443962606790
397830 11 13470404530821450237
46194498 28 16008750225663089958
465052 167 18412271661206561989
5104073 3 17988651791303647441
559249 180 18338518543367243117
59682541 52 16805318894530681311
6138700 20 18412268320355073183
7970288 3 18409169874855006158
86090 222 16772977838400667174
960060 61 16950286208703473572

> <PUBCHEM_SHAPE_MULTIPOLES>
508.55
16.97
2.64
1.54
8.67
0.14
-0.22
-10.29
0.16
-0.51
-0.52
-2.54
-0.55
-1.42

> <PUBCHEM_SHAPE_SELFOVERLAP>
1108.571

> <PUBCHEM_SHAPE_VOLUME>
279

> <PUBCHEM_COORDINATE_TYPE>
2
5
10

$$$$
85470447
  -OEChem-05102415133D

 44 46  0     0  0  0  0  0  0999 V2000
   -2.5059   -1.8035   -0.6746 O   0  0  0  0  0  0  0  0  0  0  0  0
    4.8011   -2.6038    0.0161 O   0  0  0  0  0  0  0  0  0  0  0  0
    1.0343    2.7701    0.5067 O   0  0  0  0  0  0  0  0  0  0  0  0
    1.4697    1.2521   -1.1913 N   0  0  0  0  0  0  0  0  0  0  0  0
   -6.5838   -1.0430   -0.2184 N   0  0  0  0  0  0  0  0  0  0  0  0
   -6.6699   -0.8223    1.1045 N   0  0  0  0  0  0  0  0  0  0  0  0
   -3.2959    0.3145    0.1425 C   0  0  0  0  0  0  0  0  0  0  0  0
   -0.7061    1.3221   -0.1038 C   0  0  0  0  0  0  0  0  0  0  0  0
    2.8414    1.6457   -1.4205 C   0  0  0  0  0  0  0  0  0  0  0  0
   -2.2702   -0.5059   -0.3275 C   0  0  0  0  0  0  0  0  0  0  0  0
    3.7997    0.8663   -0.5670 C   0  0  0  0  0  0  0  0  0  0  0  0
   -0.9753   -0.0019   -0.4506 C   0  0  0  0  0  0  0  0  0  0  0  0
   -4.6376   -0.1851    0.2788 C   0  0  0  0  0  0  0  0  0  0  0  0
   -3.0268    1.6386    0.4890 C   0  0  0  0  0  0  0  0  0  0  0  0
   -1.7319    2.1424    0.3661 C   0  0  0  0  0  0  0  0  0  0  0  0
    0.6441    1.8471   -0.2303 C   0  0  0  0  0  0  0  0  0  0  0  0
    3.8568   -0.5233   -0.6735 C   0  0  0  0  0  0  0  0  0  0  0  0
    4.6324    1.5317    0.3330 C   0  0  0  0  0  0  0  0  0  0  0  0
   -5.3868   -0.6786   -0.7613 C   0  0  0  0  0  0  0  0  0  0  0  0
    4.7466   -1.2478    0.1197 C   0  0  0  0  0  0  0  0  0  0  0  0
   -5.4781   -0.2982    1.4026 C   0  0  0  0  0  0  0  0  0  0  0  0
    5.5219    0.8072    1.1264 C   0  0  0  0  0  0  0  0  0  0  0  0
    5.5793   -0.5824    1.0197 C   0  0  0  0  0  0  0  0  0  0  0  0
   -1.3920   -2.5596   -1.1437 C   0  0  0  0  0  0  0  0  0  0  0  0
    5.7327   -3.2822    0.8576 C   0  0  0  0  0  0  0  0  0  0  0  0
    2.9340    2.7225   -1.2393 H   0  0  0  0  0  0  0  0  0  0  0  0
    3.0669    1.4709   -2.4785 H   0  0  0  0  0  0  0  0  0  0  0  0
   -0.1480   -0.6232   -0.7686 H   0  0  0  0  0  0  0  0  0  0  0  0
   -3.8134    2.2948    0.8544 H   0  0  0  0  0  0  0  0  0  0  0  0
   -1.5433    3.1780    0.6371 H   0  0  0  0  0  0  0  0  0  0  0  0
    1.0997    0.5398   -1.8115 H   0  0  0  0  0  0  0  0  0  0  0  0
    3.2135   -1.0491   -1.3750 H   0  0  0  0  0  0  0  0  0  0  0  0
    4.5984    2.6137    0.4277 H   0  0  0  0  0  0  0  0  0  0  0  0
   -5.1885   -0.8016   -1.8172 H   0  0  0  0  0  0  0  0  0  0  0  0
   -5.2753   -0.0221    2.4279 H   0  0  0  0  0  0  0  0  0  0  0  0
    6.1696    1.3262    1.8271 H   0  0  0  0  0  0  0  0  0  0  0  0
    6.2929   -1.0826    1.6655 H   0  0  0  0  0  0  0  0  0  0  0  0
   -7.3833   -1.4464   -0.6906 H   0  0  0  0  0  0  0  0  0  0  0  0
   -1.7644   -3.5612   -1.3838 H   0  0  0  0  0  0  0  0  0  0  0  0
   -0.6314   -2.6869   -0.3657 H   0  0  0  0  0  0  0  0  0  0  0  0
   -0.9821   -2.1475   -2.0724 H   0  0  0  0  0  0  0  0  0  0  0  0
    5.4908   -3.1463    1.9171 H   0  0  0  0  0  0  0  0  0  0  0  0
    6.7648   -2.9967    0.6273 H   0  0  0  0  0  0  0  0  0  0  0  0
    5.6417   -4.3522    0.6437 H   0  0  0  0  0  0  0  0  0  0  0  0
  1 10  1  0  0  0  0
  1 24  1  0  0  0  0
  2 20  1  0  0  0  0
  2 25  1  0  0  0  0
  3 16  2  0  0  0  0
  4  9  1  0  0  0  0
  4 16  1  0  0  0  0
  4 31  1  0  0  0  0
  5  6  1  0  0  0  0
  5 19  1  0  0  0  0
  5 38  1  0  0  0  0
  6 21  2  0  0  0  0
  7 10  2  0  0  0  0
  7 13  1  0  0  0  0
  7 14  1  0  0  0  0
  8 12  2  0  0  0  0
  8 15  1  0  0  0  0
  8 16  1  0  0  0  0
  9 11  1  0  0  0  0
  9 26  1  0  0  0  0
  9 27  1  0  0  0  0
 10 12  1  0  0  0  0
 11 17  2  0  0  0  0
 11 18  1  0  0  0  0
 12 28  1  0  0  0  0
 13 19  2  0  0  0  0
 13 21  1  0  0  0  0
 14 15  2  0  0  0  0
 14 29  1  0  0  0  0
 15 30  1  0  0  0  0
 17 20  1  0  0  0  0
 17 32  1  0  0  0  0
 18 22  2  0  0  0  0
 18 33  1  0  0  0  0
 19 34  1  0  0  0  0
 20 23  2  0  0  0  0
 21 35  1  0  0  0  0
 22 23  1  0  0  0  0
 22 36  1  0  0  0  0
 23 37  1  0  0  0  0
 24 39  1  0  0  0  0
 24 40  1  0  0  0  0
 24 41  1  0  0  0  0
 25 42  1  0  0  0  0
 25 43  1  0  0  0  0
 25 44  1  0  0  0  0
M  END
> <PUBCHEM_COMPOUND_CID>
85470447

> <PUBCHEM_CONFORMER_RMSD>
0.8

> <PUBCHEM_CONFORMER_DIVERSEORDER>
23
69
68
82
80
83
7
93
94
22
76
59
19
57
44
87
12
32
48
49
37
46
24
75
62
36
45
97
85
8
9
79
70
29
56
11
50
66
67
18
99
35
13
64
26
53
34
81
54
78
17
31
90
84
100
61
4
6
72
71
2
96
65
95
41
27
60
10
52
91
21
14
98
55
42
86
30
40
38
51
39
58
73
89
101
5
47
43
1
88
16
92
25
3
74
63
33
77
28
20
15

> <PUBCHEM_MMFF94_PARTIAL_CHARGES>
36
1 -0.36
10 0.08
11 -0.14
12 -0.15
13 -0.05
14 -0.15
15 -0.15
16 0.54
17 -0.15
18 -0.15
19 -0.3
2 -0.36
20 0.08
21 0.14
22 -0.15
23 -0.15
24 0.28
25 0.28
28 0.15
29 0.15
3 -0.57
30 0.15
31 0.37
32 0.15
33 0.15
34 0.15
35 0.15
36 0.15
37 0.15
38 0.27
4 -0.73
5 0.3
6 -0.71
7 0.05
8 0.09
9 0.44

> <PUBCHEM_EFFECTIVE_ROTOR_COUNT>
7

> <PUBCHEM_PHARMACOPHORE_FEATURES>
9
1 1 acceptor
1 2 acceptor
1 3 acceptor
1 4 donor
1 5 donor
1 6 acceptor
5 5 6 13 19 21 rings
6 11 17 18 20 22 23 rings
6 7 8 10 12 14 15 rings

> <PUBCHEM_HEAVY_ATOM_COUNT>
25

> <PUBCHEM_ATOM_DEF_STEREO_COUNT>
0

> <PUBCHEM_ATOM_UDEF_STEREO_COUNT>
0

> <PUBCHEM_BOND_DEF_STEREO_COUNT>
0

> <PUBCHEM_BOND_UDEF_STEREO_COUNT>
0

> <PUBCHEM_ISOTOPIC_ATOM_COUNT>
0

> <PUBCHEM_COMPONENT_COUNT>
1

> <PUBCHEM_CACTVS_TAUTO_COUNT>
9

> <PUBCHEM_CONFORMER_ID>
05182CEF00000017

> <PUBCHEM_MMFF94_ENERGY>
80.8236

> <PUBCHEM_FEATURE_SELFOVERLAP>
45.673

> <PUBCHEM_SHAPE_FINGERPRINT>
11796584 16 17313382370107866321
12107183 9 18051418366326953168
12236239 1 18259985989588129409
12596602 18 17346602971395317466
12623949 98 18199191694582492174
12633257 1 16773788217172261800
13073987 5 18412826871713870392
13533116 47 18409731776873005840
13551218 46 18410856546929214399
13782708 43 17168432679030272259
13862211 1 18342177804290511485
13914758 101 18040994017412486901
14211702 104 18260558852479038235
14251740 57 18338519638905591874
14528608 73 9295289426006926808
15183329 4 18271531983008561959
15510800 12 17894921706891456450
15537594 2 18409455816766204790
16728300 4 18265044743782310151
16992610 120 18120944069810125068
17492 89 18265050237619896944
17857418 61 18341894129842379645
1813 80 17675927573672322468
1979834 28 17846786174332965838
20028762 73 18338795607576707682
20567600 234 15697997482997178977
208703 8 17751626660159533218
21049683 118 12966835789864225388
21267235 1 18410863135867768134
21424621 283 14332311623074300507
21682296 61 18334580088242357499
21792934 111 18341605972086519169
21857420 4 14136418503203895482
21859007 373 18263062393475133725
23559900 14 17985549093938742761
23569914 2 13970864577859316355
2838139 119 10591768640529721105
3004659 81 18334303084553267388
3383291 50 18335139808423025643
3680242 22 18341339941406029199
3886686 26 17335349229593733858
46194498 28 16950564419678931532
5104073 3 18201440225282487008
559249 180 18261951852011930389
56633871 153 18340764845438602134
5718773 13 17896031049979174930

> <PUBCHEM_SHAPE_MULTIPOLES>
481.94
16.74
2.92
1.16
3.75
1.13
0.01
9.1
5.4
-3.37
0.02
-0.08
0.07
-1.13

> <PUBCHEM_SHAPE_SELFOVERLAP>
1045.892

> <PUBCHEM_SHAPE_VOLUME>
264.3

> <PUBCHEM_COORDINATE_TYPE>
2
5
10

$$$$
90354129
  -OEChem-05102415133D

 44 46  0     0  0  0  0  0  0999 V2000
   -2.3880   -1.9507   -0.1244 O   0  0  0  0  0  0  0  0  0  0  0  0
    3.5982    0.8816    1.4830 O   0  0  0  0  0  0  0  0  0  0  0  0
    1.1664    2.7598    0.0271 O   0  0  0  0  0  0  0  0  0  0  0  0
    1.7048    0.8180   -1.1204 N   0  0  0  0  0  0  0  0  0  0  0  0
   -6.6790   -0.4061   -0.2541 N   0  0  0  0  0  0  0  0  0  0  0  0
   -6.4722   -1.0903    0.8840 N   0  0  0  0  0  0  0  0  0  0  0  0
   -3.1848    0.3147   -0.0211 C   0  0  0  0  0  0  0  0  0  0  0  0
    3.1022    1.1257   -1.3244 C   0  0  0  0  0  0  0  0  0  0  0  0
   -0.5551    1.2025   -0.3038 C   0  0  0  0  0  0  0  0  0  0  0  0
    4.0003    0.0751   -0.7381 C   0  0  0  0  0  0  0  0  0  0  0  0
   -2.1460   -0.6087   -0.1411 C   0  0  0  0  0  0  0  0  0  0  0  0
   -0.8312   -0.1647   -0.2824 C   0  0  0  0  0  0  0  0  0  0  0  0
   -4.5472   -0.1212    0.1272 C   0  0  0  0  0  0  0  0  0  0  0  0
   -2.9086    1.6819   -0.0428 C   0  0  0  0  0  0  0  0  0  0  0  0
   -1.5939    2.1258   -0.1839 C   0  0  0  0  0  0  0  0  0  0  0  0
    0.8158    1.6656   -0.4492 C   0  0  0  0  0  0  0  0  0  0  0  0
    4.2068    0.0015    0.6396 C   0  0  0  0  0  0  0  0  0  0  0  0
    4.6335   -0.8323   -1.5876 C   0  0  0  0  0  0  0  0  0  0  0  0
   -5.5577    0.1930   -0.7484 C   0  0  0  0  0  0  0  0  0  0  0  0
    5.0462   -0.9794    1.1677 C   0  0  0  0  0  0  0  0  0  0  0  0
   -5.1682   -0.9127    1.1120 C   0  0  0  0  0  0  0  0  0  0  0  0
    5.4727   -1.8135   -1.0595 C   0  0  0  0  0  0  0  0  0  0  0  0
    5.6793   -1.8868    0.3181 C   0  0  0  0  0  0  0  0  0  0  0  0
   -1.2597   -2.8125   -0.2538 C   0  0  0  0  0  0  0  0  0  0  0  0
    3.8653    0.7337    2.8762 C   0  0  0  0  0  0  0  0  0  0  0  0
    3.3503    2.1083   -0.9075 H   0  0  0  0  0  0  0  0  0  0  0  0
    3.2505    1.2037   -2.4077 H   0  0  0  0  0  0  0  0  0  0  0  0
    0.0028   -0.8528   -0.3334 H   0  0  0  0  0  0  0  0  0  0  0  0
   -3.7026    2.4191    0.0529 H   0  0  0  0  0  0  0  0  0  0  0  0
   -1.3996    3.1951   -0.2014 H   0  0  0  0  0  0  0  0  0  0  0  0
    1.3640   -0.0298   -1.5613 H   0  0  0  0  0  0  0  0  0  0  0  0
    4.4817   -0.7892   -2.6629 H   0  0  0  0  0  0  0  0  0  0  0  0
   -5.5866    0.7735   -1.6602 H   0  0  0  0  0  0  0  0  0  0  0  0
    5.2543   -1.0974    2.2254 H   0  0  0  0  0  0  0  0  0  0  0  0
   -4.7286   -1.3687    1.9881 H   0  0  0  0  0  0  0  0  0  0  0  0
    5.9652   -2.5204   -1.7207 H   0  0  0  0  0  0  0  0  0  0  0  0
    6.3331   -2.6512    0.7280 H   0  0  0  0  0  0  0  0  0  0  0  0
   -7.6144   -0.3896   -0.6408 H   0  0  0  0  0  0  0  0  0  0  0  0
   -1.6385   -3.8399   -0.2316 H   0  0  0  0  0  0  0  0  0  0  0  0
   -0.5743   -2.7136    0.5951 H   0  0  0  0  0  0  0  0  0  0  0  0
   -0.7581   -2.6848   -1.2193 H   0  0  0  0  0  0  0  0  0  0  0  0
    4.9230    0.9029    3.1051 H   0  0  0  0  0  0  0  0  0  0  0  0
    3.5035   -0.2275    3.2571 H   0  0  0  0  0  0  0  0  0  0  0  0
    3.2996    1.5138    3.3964 H   0  0  0  0  0  0  0  0  0  0  0  0
  1 11  1  0  0  0  0
  1 24  1  0  0  0  0
  2 17  1  0  0  0  0
  2 25  1  0  0  0  0
  3 16  2  0  0  0  0
  4  8  1  0  0  0  0
  4 16  1  0  0  0  0
  4 31  1  0  0  0  0
  5  6  1  0  0  0  0
  5 19  1  0  0  0  0
  5 38  1  0  0  0  0
  6 21  2  0  0  0  0
  7 11  2  0  0  0  0
  7 13  1  0  0  0  0
  7 14  1  0  0  0  0
  8 10  1  0  0  0  0
  8 26  1  0  0  0  0
  8 27  1  0  0  0  0
  9 12  2  0  0  0  0
  9 15  1  0  0  0  0
  9 16  1  0  0  0  0
 10 17  1  0  0  0  0
 10 18  2  0  0  0  0
 11 12  1  0  0  0  0
 12 28  1  0  0  0  0
 13 19  2  0  0  0  0
 13 21  1  0  0  0  0
 14 15  2  0  0  0  0
 14 29  1  0  0  0  0
 15 30  1  0  0  0  0
 17 20  2  0  0  0  0
 18 22  1  0  0  0  0
 18 32  1  0  0  0  0
 19 33  1  0  0  0  0
 20 23  1  0  0  0  0
 20 34  1  0  0  0  0
 21 35  1  0  0  0  0
 22 23  2  0  0  0  0
 22 36  1  0  0  0  0
 23 37  1  0  0  0  0
 24 39  1  0  0  0  0
 24 40  1  0  0  0  0
 24 41  1  0  0  0  0
 25 42  1  0  0  0  0
 25 43  1  0  0  0  0
 25 44  1  0  0  0  0
M  END
> <PUBCHEM_COMPOUND_CID>
90354129

> <PUBCHEM_CONFORMER_RMSD>
0.8

> <PUBCHEM_CONFORMER_DIVERSEORDER>
9
74
45
4
24
69
89
97
78
85
62
70
57
12
67
80
93
61
84
101
33
102
31
98
73
41
48
39
95
1
105
63
55
83
58
100
75
19
66
22
64
49
60
36
44
87
50
81
72
18
65
68
77
40
11
42
96
35
90
76
20
92
88
51
32
99
27
34
28
43
54
6
52
25
94
47
3
13
26
46
53
23
38
71
15
37
91
8
56
16
82
30
5
103
2
59
29
79
14
7
10
21
86
104
17

> <PUBCHEM_MMFF94_PARTIAL_CHARGES>
36
1 -0.36
10 -0.14
11 0.08
12 -0.15
13 -0.05
14 -0.15
15 -0.15
16 0.54
17 0.08
18 -0.15
19 -0.3
2 -0.36
20 -0.15
21 0.14
22 -0.15
23 -0.15
24 0.28
25 0.28
28 0.15
29 0.15
3 -0.57
30 0.15
31 0.37
32 0.15
33 0.15
34 0.15
35 0.15
36 0.15
37 0.15
38 0.27
4 -0.73
5 0.3
6 -0.71
7 0.05
8 0.44
9 0.09

> <PUBCHEM_EFFECTIVE_ROTOR_COUNT>
7

> <PUBCHEM_PHARMACOPHORE_FEATURES>
9
1 1 acceptor
1 2 acceptor
1 3 acceptor
1 4 donor
1 5 donor
1 6 acceptor
5 5 6 13 19 21 rings
6 10 17 18 20 22 23 rings
6 7 9 11 12 14 15 rings

> <PUBCHEM_HEAVY_ATOM_COUNT>
25

> <PUBCHEM_ATOM_DEF_STEREO_COUNT>
0

> <PUBCHEM_ATOM_UDEF_STEREO_COUNT>
0

> <PUBCHEM_BOND_DEF_STEREO_COUNT>
0

> <PUBCHEM_BOND_UDEF_STEREO_COUNT>
0

> <PUBCHEM_ISOTOPIC_ATOM_COUNT>
0

> <PUBCHEM_COMPONENT_COUNT>
1

> <PUBCHEM_CACTVS_TAUTO_COUNT>
7

> <PUBCHEM_CONFORMER_ID>
0562B1D100000009

> <PUBCHEM_MMFF94_ENERGY>
81.7029

> <PUBCHEM_FEATURE_SELFOVERLAP>
45.673

> <PUBCHEM_SHAPE_FINGERPRINT>
11545043 162 18201154335026680584
11796584 16 17748827444750129915
12166972 35 17822300084309382333
12236239 1 17748829604939539548
12616971 3 15267335210879046380
12661589 4 17896606274363500899
13402501 40 18272091557086605086
13533116 47 17704075092464477810
13551218 46 18412547595907816063
13862211 1 18411138056808917663
14840074 17 11746934313431814907
15183329 4 17095519565998117285
15348495 7 17346595309347844659
17349148 13 18272939318757699365
1813 80 17530679926842124132
18222031 100 17894914018536135428
19377110 9 14189280569915346429
20567600 234 15626220255976674537
21267235 1 18335712619341016614
21682296 61 18341621360785782407
21781051 124 18041574628118715123
21859007 373 18043224930447336397
221357 26 12324235053906163486
23522609 53 17974327341117118181
23559900 14 18270123542625570052
3004659 81 17967537878220871996
3383291 50 18409168813871945147
4340502 62 14979962471256074453
465052 167 18334304183621588327
5104073 3 18343027678828105233
559249 180 18115587041375175565
59682541 52 14707196721653558787
59755656 215 18336544924279900591
6138700 20 18335143055554892199
7970288 3 18041840606631856178
8988823 20 17203325628517989952
960060 61 15574716880942869780

> <PUBCHEM_SHAPE_MULTIPOLES>
481.94
15.83
2.36
1.52
6.92
0.14
0.89
7.71
1.86
-0.38
-0.18
-2.51
-0.19
0.98

> <PUBCHEM_SHAPE_SELFOVERLAP>
1046.569

> <PUBCHEM_SHAPE_VOLUME>
264.2

> <PUBCHEM_COORDINATE_TYPE>
2
5
10

$$$$
90353980
  -OEChem-05102415133D

 43 45  0     0  0  0  0  0  0999 V2000
   -2.8516   -1.9550    0.4304 O   0  0  0  0  0  0  0  0  0  0  0  0
    1.6214    1.7177    1.5925 O   0  0  0  0  0  0  0  0  0  0  0  0
    1.9393   -0.5132    1.0456 N   0  0  0  0  0  0  0  0  0  0  0  0
   -6.4020    0.7011   -0.6418 N   0  0  0  0  0  0  0  0  0  0  0  0
   -6.1919   -0.1992   -1.6173 N   0  0  0  0  0  0  0  0  0  0  0  0
    4.2578   -0.2020    0.3419 C   0  0  0  0  0  0  0  0  0  0  0  0
    3.3242   -0.5899    1.4519 C   0  0  0  0  0  0  0  0  0  0  0  0
   -2.8813    0.3887   -0.1025 C   0  0  0  0  0  0  0  0  0  0  0  0
   -0.2195    0.5602    0.7154 C   0  0  0  0  0  0  0  0  0  0  0  0
    4.5105   -1.0708   -0.7199 C   0  0  0  0  0  0  0  0  0  0  0  0
   -2.2205   -0.7477    0.3644 C   0  0  0  0  0  0  0  0  0  0  0  0
   -0.8896   -0.6619    0.7733 C   0  0  0  0  0  0  0  0  0  0  0  0
    1.1674    0.6503    1.1434 C   0  0  0  0  0  0  0  0  0  0  0  0
   -2.2110    1.6107   -0.1607 C   0  0  0  0  0  0  0  0  0  0  0  0
   -4.2537    0.3230   -0.5274 C   0  0  0  0  0  0  0  0  0  0  0  0
   -0.8803    1.6965    0.2485 C   0  0  0  0  0  0  0  0  0  0  0  0
    4.8758    1.0478    0.3828 C   0  0  0  0  0  0  0  0  0  0  0  0
    5.3814   -0.6896   -1.7407 C   0  0  0  0  0  0  0  0  0  0  0  0
    3.8601   -2.4135   -0.7854 C   0  0  0  0  0  0  0  0  0  0  0  0
    5.7469    1.4289   -0.6380 C   0  0  0  0  0  0  0  0  0  0  0  0
    5.9998    0.5602   -1.6995 C   0  0  0  0  0  0  0  0  0  0  0  0
   -5.2731    1.0472    0.0411 C   0  0  0  0  0  0  0  0  0  0  0  0
   -4.8779   -0.4263   -1.5426 C   0  0  0  0  0  0  0  0  0  0  0  0
   -3.5322   -2.2630    1.6445 C   0  0  0  0  0  0  0  0  0  0  0  0
    3.5223   -1.6072    1.8043 H   0  0  0  0  0  0  0  0  0  0  0  0
    3.4685    0.0638    2.3208 H   0  0  0  0  0  0  0  0  0  0  0  0
    1.5431   -1.3495    0.6311 H   0  0  0  0  0  0  0  0  0  0  0  0
   -0.4155   -1.5602    1.1591 H   0  0  0  0  0  0  0  0  0  0  0  0
   -2.7052    2.5080   -0.5262 H   0  0  0  0  0  0  0  0  0  0  0  0
   -0.3739    2.6566    0.1908 H   0  0  0  0  0  0  0  0  0  0  0  0
    4.6886    1.7369    1.2021 H   0  0  0  0  0  0  0  0  0  0  0  0
    5.5887   -1.3534   -2.5758 H   0  0  0  0  0  0  0  0  0  0  0  0
    2.7838   -2.3176   -0.9541 H   0  0  0  0  0  0  0  0  0  0  0  0
    4.2601   -3.0092   -1.6142 H   0  0  0  0  0  0  0  0  0  0  0  0
    4.0448   -2.9912    0.1253 H   0  0  0  0  0  0  0  0  0  0  0  0
    6.2279    2.4022   -0.6064 H   0  0  0  0  0  0  0  0  0  0  0  0
    6.6777    0.8572   -2.4944 H   0  0  0  0  0  0  0  0  0  0  0  0
   -5.3041    1.7613    0.8524 H   0  0  0  0  0  0  0  0  0  0  0  0
   -4.4336   -1.1291   -2.2334 H   0  0  0  0  0  0  0  0  0  0  0  0
   -7.3451    1.0386   -0.4952 H   0  0  0  0  0  0  0  0  0  0  0  0
   -4.0249   -3.2317    1.5239 H   0  0  0  0  0  0  0  0  0  0  0  0
   -4.2937   -1.5107    1.8714 H   0  0  0  0  0  0  0  0  0  0  0  0
   -2.8198   -2.3349    2.4725 H   0  0  0  0  0  0  0  0  0  0  0  0
  1 11  1  0  0  0  0
  1 24  1  0  0  0  0
  2 13  2  0  0  0  0
  3  7  1  0  0  0  0
  3 13  1  0  0  0  0
  3 27  1  0  0  0  0
  4  5  1  0  0  0  0
  4 22  1  0  0  0  0
  4 40  1  0  0  0  0
  5 23  2  0  0  0  0
  6  7  1  0  0  0  0
  6 10  1  0  0  0  0
  6 17  2  0  0  0  0
  7 25  1  0  0  0  0
  7 26  1  0  0  0  0
  8 11  2  0  0  0  0
  8 14  1  0  0  0  0
  8 15  1  0  0  0  0
  9 12  2  0  0  0  0
  9 13  1  0  0  0  0
  9 16  1  0  0  0  0
 10 18  2  0  0  0  0
 10 19  1  0  0  0  0
 11 12  1  0  0  0  0
 12 28  1  0  0  0  0
 14 16  2  0  0  0  0
 14 29  1  0  0  0  0
 15 22  2  0  0  0  0
 15 23  1  0  0  0  0
 16 30  1  0  0  0  0
 17 20  1  0  0  0  0
 17 31  1  0  0  0  0
 18 21  1  0  0  0  0
 18 32  1  0  0  0  0
 19 33  1  0  0  0  0
 19 34  1  0  0  0  0
 19 35  1  0  0  0  0
 20 21  2  0  0  0  0
 20 36  1  0  0  0  0
 21 37  1  0  0  0  0
 22 38  1  0  0  0  0
 23 39  1  0  0  0  0
 24 41  1  0  0  0  0
 24 42  1  0  0  0  0
 24 43  1  0  0  0  0
M  END
> <PUBCHEM_COMPOUND_CID>
90353980

> <PUBCHEM_CONFORMER_RMSD>
0.8

> <PUBCHEM_CONFORMER_DIVERSEORDER>
5
24
49
29
45
48
13
50
35
46
43
16
38
11
36
32
21
19
34
14
51
12
18
33
10
2
17
42
1
40
26
9
4
37
28
39
27
41
30
47
44
31
23
8
7
22
15
6
20
3
25

> <PUBCHEM_MMFF94_PARTIAL_CHARGES>
35
1 -0.36
10 -0.14
11 0.08
12 -0.15
13 0.54
14 -0.15
15 -0.05
16 -0.15
17 -0.15
18 -0.15
19 0.14
2 -0.57
20 -0.15
21 -0.15
22 -0.3
23 0.14
24 0.28
27 0.37
28 0.15
29 0.15
3 -0.73
30 0.15
31 0.15
32 0.15
36 0.15
37 0.15
38 0.15
39 0.15
4 0.3
40 0.27
5 -0.71
6 -0.14
7 0.44
8 0.05
9 0.09

> <PUBCHEM_EFFECTIVE_ROTOR_COUNT>
6

> <PUBCHEM_PHARMACOPHORE_FEATURES>
8
1 1 acceptor
1 2 acceptor
1 3 donor
1 4 donor
1 5 acceptor
5 4 5 15 22 23 rings
6 6 10 17 18 20 21 rings
6 8 9 11 12 14 16 rings

> <PUBCHEM_HEAVY_ATOM_COUNT>
24

> <PUBCHEM_ATOM_DEF_STEREO_COUNT>
0

> <PUBCHEM_ATOM_UDEF_STEREO_COUNT>
0

> <PUBCHEM_BOND_DEF_STEREO_COUNT>
0

> <PUBCHEM_BOND_UDEF_STEREO_COUNT>
0

> <PUBCHEM_ISOTOPIC_ATOM_COUNT>
0

> <PUBCHEM_COMPONENT_COUNT>
1

> <PUBCHEM_CACTVS_TAUTO_COUNT>
7

> <PUBCHEM_CONFORMER_ID>
0562B13C00000005

> <PUBCHEM_MMFF94_ENERGY>
71.2854

> <PUBCHEM_FEATURE_SELFOVERLAP>
40.597

> <PUBCHEM_SHAPE_FINGERPRINT>
10 15 9655570803885984366
10498660 4 18186243935499487458
10554248 39 17388229313877589327
10692045 39 11602804805935454864
10906281 52 18337679616258688889
11991303 11 17199975261885692641
12166972 35 15554443033177304689
12236239 1 16588020216794440385
12516196 113 17060335228084381264
12616971 3 15357967984684708922
12670546 177 18335425656013240996
12788726 201 18269267980887353569
13150687 139 18341623642399373462
13533116 47 18337953372884256782
13668630 136 16343988013572744316
13685833 64 15913325789031327284
13690498 29 18044664324232979139
13782708 43 15697418032459856293
14251757 52 16805595929197264085
14251764 18 9943803396514874016
14528608 73 18333449841949644772
14790565 3 17972314019631003145
15183329 4 17775004553413113613
15188451 53 13039185879363933206
15348495 7 9583222959804676645
15475509 8 18272376317607925417
17844677 252 17060621096686275920
18222031 100 16988844977835632488
19319366 153 17168130213868047403
19784866 240 16200152105750559057
20645477 70 17346874542699630464
21315764 268 9583510997618444298
21641784 216 17822571590667668109
22079108 93 13406799917183778593
221357 26 18201716236986982632
2215653 11 18131066034901219941
22849339 104 18335145336072302147
23016692 55 17418376878680434036
23522609 53 17702127852771524936
23559900 14 18337951306630551352
23569914 2 13192554707898146911
23569943 247 17915179014722789911
24771750 20 17681570442807232260
25122255 55 15841551928933017351
2838139 119 15213299768209220598
300161 21 17385439934165327810
3004659 81 18337669707843405834
3472631 163 17168152269089204806
34797466 226 18186806872114397972
4340502 62 12252182939793123577
465052 167 15339120148030277540
54039377 194 15195021401743463332
543368 44 17240203248566461901
59682541 52 18130779015216676199
7237137 82 17749671891461488571
7970288 3 15697728008749651894
8509985 295 11314316053151154430
960060 61 18131069325268129406

> <PUBCHEM_SHAPE_MULTIPOLES>
467.23
16.45
1.95
1.6
0.18
0.71
-0.2
-1.12
-8.91
-0.17
0.32
-0.53
0.24
0.95

> <PUBCHEM_SHAPE_SELFOVERLAP>
1016.108

> <PUBCHEM_SHAPE_VOLUME>
256.2

> <PUBCHEM_COORDINATE_TYPE>
2
5
10

$$$$
90353913
  -OEChem-05102415133D

 43 45  0     0  0  0  0  0  0999 V2000
   -5.6782   -2.4208    1.1445 F   0  0  0  0  0  0  0  0  0  0  0  0
   -7.0198   -0.7360    1.3999 F   0  0  0  0  0  0  0  0  0  0  0  0
   -7.0992   -1.9189   -0.4228 F   0  0  0  0  0  0  0  0  0  0  0  0
    4.9733    1.5801    0.2689 O   0  0  0  0  0  0  0  0  0  0  0  0
    0.1038    2.9652   -0.0942 O   0  0  0  0  0  0  0  0  0  0  0  0
   -0.9973    1.0946    0.7213 N   0  0  0  0  0  0  0  0  0  0  0  0
    6.3420   -2.9063    0.0381 N   0  0  0  0  0  0  0  0  0  0  0  0
    7.0860   -1.9235   -0.4976 N   0  0  0  0  0  0  0  0  0  0  0  0
   -2.2994    1.7086    0.8487 C   0  0  0  0  0  0  0  0  0  0  0  0
   -3.3329    1.0136    0.0103 C   0  0  0  0  0  0  0  0  0  0  0  0
    3.7350   -0.4601   -0.0177 C   0  0  0  0  0  0  0  0  0  0  0  0
    1.3686    1.0069    0.1585 C   0  0  0  0  0  0  0  0  0  0  0  0
    3.7832    0.9215    0.1697 C   0  0  0  0  0  0  0  0  0  0  0  0
    2.5999    1.6549    0.2578 C   0  0  0  0  0  0  0  0  0  0  0  0
    4.9427   -1.2356   -0.1095 C   0  0  0  0  0  0  0  0  0  0  0  0
    2.5037   -1.1079   -0.1173 C   0  0  0  0  0  0  0  0  0  0  0  0
    0.1348    1.7710    0.2521 C   0  0  0  0  0  0  0  0  0  0  0  0
   -4.2713    0.1755    0.6126 C   0  0  0  0  0  0  0  0  0  0  0  0
    1.3205   -0.3746   -0.0290 C   0  0  0  0  0  0  0  0  0  0  0  0
   -5.2314   -0.4703   -0.1663 C   0  0  0  0  0  0  0  0  0  0  0  0
   -3.3546    1.2058   -1.3711 C   0  0  0  0  0  0  0  0  0  0  0  0
   -5.2532   -0.2779   -1.5479 C   0  0  0  0  0  0  0  0  0  0  0  0
   -4.3146    0.5599   -2.1501 C   0  0  0  0  0  0  0  0  0  0  0  0
    5.0509   -2.5455    0.2894 C   0  0  0  0  0  0  0  0  0  0  0  0
   -6.2347   -1.3669    0.4774 C   0  0  0  0  0  0  0  0  0  0  0  0
    6.2258   -0.9054   -0.5852 C   0  0  0  0  0  0  0  0  0  0  0  0
    4.9166    2.9919    0.4595 C   0  0  0  0  0  0  0  0  0  0  0  0
   -2.2558    2.7698    0.5791 H   0  0  0  0  0  0  0  0  0  0  0  0
   -2.5666    1.6653    1.9108 H   0  0  0  0  0  0  0  0  0  0  0  0
    2.5777    2.7284    0.4099 H   0  0  0  0  0  0  0  0  0  0  0  0
   -0.9157    0.1393    1.0534 H   0  0  0  0  0  0  0  0  0  0  0  0
    2.4271   -2.1794   -0.2845 H   0  0  0  0  0  0  0  0  0  0  0  0
   -4.2573    0.0209    1.6889 H   0  0  0  0  0  0  0  0  0  0  0  0
    0.3843   -0.9130   -0.1450 H   0  0  0  0  0  0  0  0  0  0  0  0
   -2.6287    1.8567   -1.8513 H   0  0  0  0  0  0  0  0  0  0  0  0
   -5.9924   -0.7715   -2.1726 H   0  0  0  0  0  0  0  0  0  0  0  0
   -4.3312    0.7097   -3.2257 H   0  0  0  0  0  0  0  0  0  0  0  0
    4.3555   -3.2479    0.7280 H   0  0  0  0  0  0  0  0  0  0  0  0
    6.5828    0.0235   -1.0065 H   0  0  0  0  0  0  0  0  0  0  0  0
    6.7814   -3.8022    0.2084 H   0  0  0  0  0  0  0  0  0  0  0  0
    4.4423    3.2540    1.4115 H   0  0  0  0  0  0  0  0  0  0  0  0
    4.4550    3.4986   -0.3950 H   0  0  0  0  0  0  0  0  0  0  0  0
    5.9505    3.3489    0.5150 H   0  0  0  0  0  0  0  0  0  0  0  0
  1 25  1  0  0  0  0
  2 25  1  0  0  0  0
  3 25  1  0  0  0  0
  4 13  1  0  0  0  0
  4 27  1  0  0  0  0
  5 17  2  0  0  0  0
  6  9  1  0  0  0  0
  6 17  1  0  0  0  0
  6 31  1  0  0  0  0
  7  8  1  0  0  0  0
  7 24  1  0  0  0  0
  7 40  1  0  0  0  0
  8 26  2  0  0  0  0
  9 10  1  0  0  0  0
  9 28  1  0  0  0  0
  9 29  1  0  0  0  0
 10 18  2  0  0  0  0
 10 21  1  0  0  0  0
 11 13  2  0  0  0  0
 11 15  1  0  0  0  0
 11 16  1  0  0  0  0
 12 14  2  0  0  0  0
 12 17  1  0  0  0  0
 12 19  1  0  0  0  0
 13 14  1  0  0  0  0
 14 30  1  0  0  0  0
 15 24  2  0  0  0  0
 15 26  1  0  0  0  0
 16 19  2  0  0  0  0
 16 32  1  0  0  0  0
 18 20  1  0  0  0  0
 18 33  1  0  0  0  0
 19 34  1  0  0  0  0
 20 22  2  0  0  0  0
 20 25  1  0  0  0  0
 21 23  2  0  0  0  0
 21 35  1  0  0  0  0
 22 23  1  0  0  0  0
 22 36  1  0  0  0  0
 23 37  1  0  0  0  0
 24 38  1  0  0  0  0
 26 39  1  0  0  0  0
 27 41  1  0  0  0  0
 27 42  1  0  0  0  0
 27 43  1  0  0  0  0
M  END
> <PUBCHEM_COMPOUND_CID>
90353913

> <PUBCHEM_CONFORMER_RMSD>
0.8

> <PUBCHEM_CONFORMER_DIVERSEORDER>
21
63
37
8
20
34
6
35
49
64
73
5
48
3
23
22
29
71
74
65
54
1
43
52
67
66
53
42
60
25
33
17
13
46
69
9
24
72
10
26
41
55
27
75
7
30
57
38
44
50
51
36
32
70
11
39
58
19
59
15
2
62
31
16
14
28
68
47
12
56
45
61
18
40
4

> <PUBCHEM_MMFF94_PARTIAL_CHARGES>
38
1 -0.34
10 -0.14
11 0.05
12 0.09
13 0.08
14 -0.15
15 -0.05
16 -0.15
17 0.54
18 -0.15
19 -0.15
2 -0.34
20 -0.14
21 -0.15
22 -0.15
23 -0.15
24 -0.3
25 1.16
26 0.14
27 0.28
3 -0.34
30 0.15
31 0.37
32 0.15
33 0.15
34 0.15
35 0.15
36 0.15
37 0.15
38 0.15
39 0.15
4 -0.36
40 0.27
5 -0.57
6 -0.73
7 0.3
8 -0.71
9 0.44

> <PUBCHEM_EFFECTIVE_ROTOR_COUNT>
7

> <PUBCHEM_PHARMACOPHORE_FEATURES>
8
1 4 acceptor
1 5 acceptor
1 6 donor
1 7 donor
1 8 acceptor
5 7 8 15 24 26 rings
6 10 18 20 21 22 23 rings
6 11 12 13 14 16 19 rings

> <PUBCHEM_HEAVY_ATOM_COUNT>
27

> <PUBCHEM_ATOM_DEF_STEREO_COUNT>
0

> <PUBCHEM_ATOM_UDEF_STEREO_COUNT>
0

> <PUBCHEM_BOND_DEF_STEREO_COUNT>
0

> <PUBCHEM_BOND_UDEF_STEREO_COUNT>
0

> <PUBCHEM_ISOTOPIC_ATOM_COUNT>
0

> <PUBCHEM_COMPONENT_COUNT>
1

> <PUBCHEM_CACTVS_TAUTO_COUNT>
7

> <PUBCHEM_CONFORMER_ID>
0562B0F900000015

> <PUBCHEM_MMFF94_ENERGY>
69.4636

> <PUBCHEM_FEATURE_SELFOVERLAP>
40.597

> <PUBCHEM_SHAPE_FINGERPRINT>
10319926 262 13830131736943093725
10740516 88 17825121539650294067
11135609 99 18411138044019422558
117089 54 17754185490211334843
12166972 35 18113905956921499060
12616971 3 17489863843083899108
12633257 1 15482668005307058697
13073987 5 18343584048822979065
13402501 40 18334579083626224811
13533116 47 18272087223475022976
1361 4 18339360897975769995
13668630 136 18408041792698387450
13685833 64 18411983550579225170
13690498 29 18040713637346254517
13782708 43 18113894931756299906
14123256 34 18271810082025218958
14251764 30 18333731316720445581
15064981 113 14779529176313430659
15064986 266 18409446956581573797
15082195 135 17823433745945010028
15183329 4 13479131285095039467
15326921 28 15911659926242195337
15352257 5 18408045117325055371
15510800 12 17823707550300300715
15537594 2 17917145117326545525
17627616 140 17677042439671623363
18643901 69 17967254196501519407
19377110 9 17418374705506136472
19841028 212 18058150895600037903
19958102 18 18040995163599360995
20028762 73 18201436939912372406
20398071 356 18342742875198732375
21033650 10 16661204733184806621
21150785 3 17313110752408114782
21267235 1 18343306938102051518
21307412 95 17968935418721996211
22061861 79 18260824886652290885
22149856 69 18341059574726307273
22393880 68 17967805003706487137
2303208 19 18259702298307580333
23522609 53 18054262948573401056
23559900 14 18113622270622284000
24771750 20 17464547777092375172
3004659 81 18187362116764569160
314194 84 18130781291517895517
34797466 226 17240489147048536908
4015057 19 18334866021543048864
439807 62 18335706027009354675
44880568 143 17313099735316302820
46194498 28 17604426422222044485
465052 167 18272653420571075366
484989 97 18334866034623077338
5104073 3 18060420183729066912
54039377 194 18272655619388999046
5718773 13 18337389340730965130
636775 8 18341060601962248574
6431902 208 18341891840350673303
6608658 132 14345790522648573775
7970288 3 18412262831086545611
8863177 126 18408886277837384195
999808 66 18408046204268285751

> <PUBCHEM_SHAPE_MULTIPOLES>
507.14
20.4
3
1.15
7.26
0.14
0.41
-15.09
0.32
-3.66
-0.5
2.21
0
1.43

> <PUBCHEM_SHAPE_SELFOVERLAP>
1107.947

> <PUBCHEM_SHAPE_VOLUME>
276.9

> <PUBCHEM_COORDINATE_TYPE>
2
5
10

$$$$
85470573
  -OEChem-05102415133D

 40 42  0     0  0  0  0  0  0999 V2000
    4.9898    2.8853   -0.2868 F   0  0  0  0  0  0  0  0  0  0  0  0
    5.8283   -1.2691    1.8265 F   0  0  0  0  0  0  0  0  0  0  0  0
    6.3117    1.4122    1.6000 F   0  0  0  0  0  0  0  0  0  0  0  0
   -2.8760    1.9274   -0.3252 O   0  0  0  0  0  0  0  0  0  0  0  0
    0.9475   -2.5682    0.0019 O   0  0  0  0  0  0  0  0  0  0  0  0
    1.2290   -0.7761   -1.4424 N   0  0  0  0  0  0  0  0  0  0  0  0
   -7.0462    0.1906    0.3095 N   0  0  0  0  0  0  0  0  0  0  0  0
   -6.7496    1.0456    1.3031 N   0  0  0  0  0  0  0  0  0  0  0  0
   -3.5106   -0.3306    0.2006 C   0  0  0  0  0  0  0  0  0  0  0  0
   -0.8837   -1.1327   -0.2887 C   0  0  0  0  0  0  0  0  0  0  0  0
    2.5923   -1.0757   -1.8177 C   0  0  0  0  0  0  0  0  0  0  0  0
   -2.5542    0.6097   -0.1830 C   0  0  0  0  0  0  0  0  0  0  0  0
   -1.2408    0.2086   -0.4276 C   0  0  0  0  0  0  0  0  0  0  0  0
    3.5845   -0.4129   -0.9065 C   0  0  0  0  0  0  0  0  0  0  0  0
   -4.8706    0.0610    0.4561 C   0  0  0  0  0  0  0  0  0  0  0  0
   -3.1534   -1.6718    0.3398 C   0  0  0  0  0  0  0  0  0  0  0  0
   -1.8401   -2.0729    0.0950 C   0  0  0  0  0  0  0  0  0  0  0  0
    0.4851   -1.5514   -0.5455 C   0  0  0  0  0  0  0  0  0  0  0  0
    4.2590   -1.1644    0.0559 C   0  0  0  0  0  0  0  0  0  0  0  0
    3.8314    0.9552   -1.0221 C   0  0  0  0  0  0  0  0  0  0  0  0
   -5.9558   -0.4251   -0.2316 C   0  0  0  0  0  0  0  0  0  0  0  0
   -5.4193    0.9622    1.3880 C   0  0  0  0  0  0  0  0  0  0  0  0
    4.7530    1.5716   -0.1757 C   0  0  0  0  0  0  0  0  0  0  0  0
    5.1803   -0.5479    0.9025 C   0  0  0  0  0  0  0  0  0  0  0  0
    5.4274    0.8200    0.7868 C   0  0  0  0  0  0  0  0  0  0  0  0
   -3.3188    2.3493   -1.6129 C   0  0  0  0  0  0  0  0  0  0  0  0
    2.7385   -0.7279   -2.8468 H   0  0  0  0  0  0  0  0  0  0  0  0
    2.7325   -2.1628   -1.8251 H   0  0  0  0  0  0  0  0  0  0  0  0
   -0.5154    0.9729   -0.6926 H   0  0  0  0  0  0  0  0  0  0  0  0
   -3.8820   -2.4210    0.6411 H   0  0  0  0  0  0  0  0  0  0  0  0
   -1.5832   -3.1233    0.2052 H   0  0  0  0  0  0  0  0  0  0  0  0
    0.8002    0.0156   -1.9095 H   0  0  0  0  0  0  0  0  0  0  0  0
    4.0757   -2.2305    0.1584 H   0  0  0  0  0  0  0  0  0  0  0  0
    3.3118    1.5511   -1.7676 H   0  0  0  0  0  0  0  0  0  0  0  0
   -6.0556   -1.1356   -1.0405 H   0  0  0  0  0  0  0  0  0  0  0  0
   -4.9088    1.5632    2.1275 H   0  0  0  0  0  0  0  0  0  0  0  0
   -8.0178    0.0750    0.0498 H   0  0  0  0  0  0  0  0  0  0  0  0
   -3.5832    3.4086   -1.5534 H   0  0  0  0  0  0  0  0  0  0  0  0
   -2.5169    2.2308   -2.3486 H   0  0  0  0  0  0  0  0  0  0  0  0
   -4.2024    1.7869   -1.9298 H   0  0  0  0  0  0  0  0  0  0  0  0
  1 23  1  0  0  0  0
  2 24  1  0  0  0  0
  3 25  1  0  0  0  0
  4 12  1  0  0  0  0
  4 26  1  0  0  0  0
  5 18  2  0  0  0  0
  6 11  1  0  0  0  0
  6 18  1  0  0  0  0
  6 32  1  0  0  0  0
  7  8  1  0  0  0  0
  7 21  1  0  0  0  0
  7 37  1  0  0  0  0
  8 22  2  0  0  0  0
  9 12  2  0  0  0  0
  9 15  1  0  0  0  0
  9 16  1  0  0  0  0
 10 13  2  0  0  0  0
 10 17  1  0  0  0  0
 10 18  1  0  0  0  0
 11 14  1  0  0  0  0
 11 27  1  0  0  0  0
 11 28  1  0  0  0  0
 12 13  1  0  0  0  0
 13 29  1  0  0  0  0
 14 19  2  0  0  0  0
 14 20  1  0  0  0  0
 15 21  2  0  0  0  0
 15 22  1  0  0  0  0
 16 17  2  0  0  0  0
 16 30  1  0  0  0  0
 17 31  1  0  0  0  0
 19 24  1  0  0  0  0
 19 33  1  0  0  0  0
 20 23  2  0  0  0  0
 20 34  1  0  0  0  0
 21 35  1  0  0  0  0
 22 36  1  0  0  0  0
 23 25  1  0  0  0  0
 24 25  2  0  0  0  0
 26 38  1  0  0  0  0
 26 39  1  0  0  0  0
 26 40  1  0  0  0  0
M  END
> <PUBCHEM_COMPOUND_CID>
85470573

> <PUBCHEM_CONFORMER_RMSD>
0.8

> <PUBCHEM_CONFORMER_DIVERSEORDER>
1
31
18
14
29
2
27
8
25
30
20
22
15
21
3
9
33
26
23
28
19
10
17
16
24
32
7
5
4
11
13
12
6

> <PUBCHEM_MMFF94_PARTIAL_CHARGES>
35
1 -0.19
10 0.09
11 0.44
12 0.08
13 -0.15
14 -0.14
15 -0.05
16 -0.15
17 -0.15
18 0.54
19 -0.15
2 -0.19
20 -0.15
21 -0.3
22 0.14
23 0.19
24 0.19
25 0.19
26 0.28
29 0.15
3 -0.19
30 0.15
31 0.15
32 0.37
33 0.15
34 0.15
35 0.15
36 0.15
37 0.27
4 -0.36
5 -0.57
6 -0.73
7 0.3
8 -0.71
9 0.05

> <PUBCHEM_EFFECTIVE_ROTOR_COUNT>
6

> <PUBCHEM_PHARMACOPHORE_FEATURES>
8
1 4 acceptor
1 5 acceptor
1 6 donor
1 7 donor
1 8 acceptor
5 7 8 15 21 22 rings
6 14 19 20 23 24 25 rings
6 9 10 12 13 16 17 rings

> <PUBCHEM_HEAVY_ATOM_COUNT>
26

> <PUBCHEM_ATOM_DEF_STEREO_COUNT>
0

> <PUBCHEM_ATOM_UDEF_STEREO_COUNT>
0

> <PUBCHEM_BOND_DEF_STEREO_COUNT>
0

> <PUBCHEM_BOND_UDEF_STEREO_COUNT>
0

> <PUBCHEM_ISOTOPIC_ATOM_COUNT>
0

> <PUBCHEM_COMPONENT_COUNT>
1

> <PUBCHEM_CACTVS_TAUTO_COUNT>
9

> <PUBCHEM_CONFORMER_ID>
05182D6D00000001

> <PUBCHEM_MMFF94_ENERGY>
66.8161

> <PUBCHEM_FEATURE_SELFOVERLAP>
40.597

> <PUBCHEM_SHAPE_FINGERPRINT>
10 15 18114186362335190957
12403259 415 18337676312822196724
12596602 18 16660647409553756992
12760667 363 10665222644584168975
12925494 130 17974843974121801725
13402501 40 18341895203310208729
13533116 47 17749108855429438538
13685833 64 12901544654755326750
13914758 101 14996278090484092959
15183329 4 18271814535721948593
15238133 3 18270119149670286192
15348495 7 17095815424487836793
17980427 23 18337673134636263743
18222031 100 12251905893143589446
21150785 3 14620787185807215241
21315764 268 18261107469926009220
21641784 216 14476692866387296579
21792934 111 17968099660729366981
21859007 373 17314215671273149159
221357 26 8935003659393992486
2215653 11 8934994854800511413
23016692 55 11025796487913328058
23559900 14 18267609973203261526
34797466 226 16271938120527118461
3680242 22 18408891715408042288
4340502 62 17531256041213231547
465052 167 13406795527996363818
5104073 3 18188216497460977443
960060 61 9727630609921558534

> <PUBCHEM_SHAPE_MULTIPOLES>
486.56
17.89
2.33
1.39
1.82
0.5
0
6.9
-7.72
-1.04
0.3
-0.96
0.21
0.19

> <PUBCHEM_SHAPE_SELFOVERLAP>
1066.34

> <PUBCHEM_SHAPE_VOLUME>
264.3

> <PUBCHEM_COORDINATE_TYPE>
2
5
10

$$$$
118663015
  -OEChem-05102415133D

 41 43  0     0  0  0  0  0  0999 V2000
   -2.7114    1.7428   -0.9523 O   0  0  0  0  0  0  0  0  0  0  0  0
    1.0435   -2.4587    0.8304 O   0  0  0  0  0  0  0  0  0  0  0  0
    1.3348   -1.2645   -1.1364 N   0  0  0  0  0  0  0  0  0  0  0  0
   -6.8970    0.4126    0.2825 N   0  0  0  0  0  0  0  0  0  0  0  0
   -6.5672    1.5455    0.9260 N   0  0  0  0  0  0  0  0  0  0  0  0
    7.3748    2.4345    1.4407 N   0  0  0  0  0  0  0  0  0  0  0  0
   -3.3733   -0.1926    0.3106 C   0  0  0  0  0  0  0  0  0  0  0  0
   -0.7686   -1.1670    0.0914 C   0  0  0  0  0  0  0  0  0  0  0  0
   -2.4089    0.5434   -0.3777 C   0  0  0  0  0  0  0  0  0  0  0  0
   -1.1065    0.0563   -0.4872 C   0  0  0  0  0  0  0  0  0  0  0  0
    2.6822   -1.7007   -1.4021 C   0  0  0  0  0  0  0  0  0  0  0  0
   -4.7216    0.2920    0.4364 C   0  0  0  0  0  0  0  0  0  0  0  0
   -3.0353   -1.4161    0.8892 C   0  0  0  0  0  0  0  0  0  0  0  0
   -1.7330   -1.9033    0.7796 C   0  0  0  0  0  0  0  0  0  0  0  0
    0.6181   -1.6871   -0.0252 C   0  0  0  0  0  0  0  0  0  0  0  0
    3.7009   -0.8031   -0.7851 C   0  0  0  0  0  0  0  0  0  0  0  0
   -5.8277   -0.3732   -0.0332 C   0  0  0  0  0  0  0  0  0  0  0  0
   -5.2371    1.4663    1.0171 C   0  0  0  0  0  0  0  0  0  0  0  0
    3.9736    0.4394   -1.3573 C   0  0  0  0  0  0  0  0  0  0  0  0
    4.3808   -1.2062    0.3642 C   0  0  0  0  0  0  0  0  0  0  0  0
    4.9263    1.2788   -0.7802 C   0  0  0  0  0  0  0  0  0  0  0  0
    5.3335   -0.3666    0.9413 C   0  0  0  0  0  0  0  0  0  0  0  0
    5.6062    0.8759    0.3692 C   0  0  0  0  0  0  0  0  0  0  0  0
   -3.1693    1.7155   -2.3022 C   0  0  0  0  0  0  0  0  0  0  0  0
    6.5822    1.7360    0.9605 C   0  0  0  0  0  0  0  0  0  0  0  0
   -0.3731    0.6709   -1.0017 H   0  0  0  0  0  0  0  0  0  0  0  0
    2.8133   -1.7238   -2.4903 H   0  0  0  0  0  0  0  0  0  0  0  0
    2.8023   -2.7324   -1.0508 H   0  0  0  0  0  0  0  0  0  0  0  0
   -3.7704   -2.0047    1.4333 H   0  0  0  0  0  0  0  0  0  0  0  0
   -1.4901   -2.8602    1.2341 H   0  0  0  0  0  0  0  0  0  0  0  0
    0.9049   -0.6678   -1.8348 H   0  0  0  0  0  0  0  0  0  0  0  0
   -5.9549   -1.3122   -0.5540 H   0  0  0  0  0  0  0  0  0  0  0  0
    3.4499    0.7643   -2.2526 H   0  0  0  0  0  0  0  0  0  0  0  0
    4.1775   -2.1708    0.8217 H   0  0  0  0  0  0  0  0  0  0  0  0
   -4.7025    2.2697    1.5042 H   0  0  0  0  0  0  0  0  0  0  0  0
    5.1279    2.2445   -1.2378 H   0  0  0  0  0  0  0  0  0  0  0  0
    5.8549   -0.6946    1.8374 H   0  0  0  0  0  0  0  0  0  0  0  0
   -7.8752    0.2378    0.0893 H   0  0  0  0  0  0  0  0  0  0  0  0
   -2.3824    1.3387   -2.9633 H   0  0  0  0  0  0  0  0  0  0  0  0
   -4.0675    1.0984   -2.4013 H   0  0  0  0  0  0  0  0  0  0  0  0
   -3.4149    2.7383   -2.6006 H   0  0  0  0  0  0  0  0  0  0  0  0
  1  9  1  0  0  0  0
  1 24  1  0  0  0  0
  2 15  2  0  0  0  0
  3 11  1  0  0  0  0
  3 15  1  0  0  0  0
  3 31  1  0  0  0  0
  4  5  1  0  0  0  0
  4 17  1  0  0  0  0
  4 38  1  0  0  0  0
  5 18  2  0  0  0  0
  6 25  3  0  0  0  0
  7  9  2  0  0  0  0
  7 12  1  0  0  0  0
  7 13  1  0  0  0  0
  8 10  2  0  0  0  0
  8 14  1  0  0  0  0
  8 15  1  0  0  0  0
  9 10  1  0  0  0  0
 10 26  1  0  0  0  0
 11 16  1  0  0  0  0
 11 27  1  0  0  0  0
 11 28  1  0  0  0  0
 12 17  2  0  0  0  0
 12 18  1  0  0  0  0
 13 14  2  0  0  0  0
 13 29  1  0  0  0  0
 14 30  1  0  0  0  0
 16 19  2  0  0  0  0
 16 20  1  0  0  0  0
 17 32  1  0  0  0  0
 18 35  1  0  0  0  0
 19 21  1  0  0  0  0
 19 33  1  0  0  0  0
 20 22  2  0  0  0  0
 20 34  1  0  0  0  0
 21 23  2  0  0  0  0
 21 36  1  0  0  0  0
 22 23  1  0  0  0  0
 22 37  1  0  0  0  0
 23 25  1  0  0  0  0
 24 39  1  0  0  0  0
 24 40  1  0  0  0  0
 24 41  1  0  0  0  0
M  END
> <PUBCHEM_COMPOUND_CID>
118663015

> <PUBCHEM_CONFORMER_RMSD>
0.8

> <PUBCHEM_CONFORMER_DIVERSEORDER>
1
8
9
17
21
18
6
4
13
16
15
19
10
14
5
11
3
20
12
7
2

> <PUBCHEM_MMFF94_PARTIAL_CHARGES>
36
1 -0.36
10 -0.15
11 0.44
12 -0.05
13 -0.15
14 -0.15
15 0.54
16 -0.14
17 -0.3
18 0.14
19 -0.15
2 -0.57
20 -0.15
21 -0.15
22 -0.15
23 0.07
24 0.28
25 0.48
26 0.15
29 0.15
3 -0.73
30 0.15
31 0.37
32 0.15
33 0.15
34 0.15
35 0.15
36 0.15
37 0.15
38 0.27
4 0.3
5 -0.71
6 -0.56
7 0.05
8 0.09
9 0.08

> <PUBCHEM_EFFECTIVE_ROTOR_COUNT>
6

> <PUBCHEM_PHARMACOPHORE_FEATURES>
9
1 1 acceptor
1 2 acceptor
1 3 donor
1 4 donor
1 5 acceptor
1 6 acceptor
5 4 5 12 17 18 rings
6 16 19 20 21 22 23 rings
6 7 8 9 10 13 14 rings

> <PUBCHEM_HEAVY_ATOM_COUNT>
25

> <PUBCHEM_ATOM_DEF_STEREO_COUNT>
0

> <PUBCHEM_ATOM_UDEF_STEREO_COUNT>
0

> <PUBCHEM_BOND_DEF_STEREO_COUNT>
0

> <PUBCHEM_BOND_UDEF_STEREO_COUNT>
0

> <PUBCHEM_ISOTOPIC_ATOM_COUNT>
0

> <PUBCHEM_COMPONENT_COUNT>
1

> <PUBCHEM_CACTVS_TAUTO_COUNT>
9

> <PUBCHEM_CONFORMER_ID>
0712A76700000001

> <PUBCHEM_MMFF94_ENERGY>
67.3439

> <PUBCHEM_FEATURE_SELFOVERLAP>
45.673

> <PUBCHEM_SHAPE_FINGERPRINT>
10 15 17530968007736758228
10319926 262 18040437703072904482
12035758 1 18041576792750148417
12403259 415 18260830337287660102
12760667 363 8502378853435402230
12838862 33 17894907413946961909
12895836 83 17418372514824739591
12895837 130 17987796457361863180
12925494 130 17608077681379017349
13402501 40 18410012147800768548
13533116 47 17459190703106721386
13685833 64 11674875606944329894
14251764 30 11314300655656254040
15238133 3 18262243343617136620
15510800 12 12035992561984273168
21033648 29 18409734002114425646
21130935 74 18408889499421955595
21150785 3 16559030493759791015
21307412 95 10447926187494446661
21315764 268 18040714753657943284
21641784 216 15123520159386468619
21792934 111 17459191790366059869
21859007 373 16516795954150674975
221357 26 9727638297934143494
2215653 11 10447921750750336901
23559900 14 18189921758745071118
24771293 8 18411702101631301021
270888 7 18059009605606628944
2838139 119 18201992214890500316
2916195 48 18411983533599705619
3472631 163 17703509995449421292
34797466 226 17203620276148724903
3680242 22 18186809036804288664
4340502 62 16588034485124593739
465052 167 12179847204142241266
5104073 3 17532939286299111377
54039377 194 11675146048778201688
543368 44 18060420214320909705
59682541 52 15984839121067464524
960060 61 11312049955306905482

> <PUBCHEM_SHAPE_MULTIPOLES>
482.83
18.75
2.32
1.44
5.43
0
0.49
-12.48
-6.76
1.29
-0.25
0.49
-0.51
1.61

> <PUBCHEM_SHAPE_SELFOVERLAP>
1052.447

> <PUBCHEM_SHAPE_VOLUME>
261.4

> <PUBCHEM_COORDINATE_TYPE>
2
5
10

$$$$
90354015
  -OEChem-05102415133D

 45 47  0     1  0  0  0  0  0999 V2000
   -3.1893    1.8234   -1.1681 O   0  0  0  0  0  0  0  0  0  0  0  0
    1.4928    0.1063   -2.0631 O   0  0  0  0  0  0  0  0  0  0  0  0
    1.9899   -1.0279   -0.1026 N   0  0  0  0  0  0  0  0  0  0  0  0
    3.2318   -3.6306   -0.2374 N   0  0  0  0  0  0  0  0  0  0  0  0
   -6.4367   -0.6555    0.8615 N   0  0  0  0  0  0  0  0  0  0  0  0
   -6.3497    0.5519    1.4453 N   0  0  0  0  0  0  0  0  0  0  0  0
    3.4083   -1.1662   -0.3439 C   0  0  1  0  0  0  0  0  0  0  0  0
    4.1567    0.0481    0.1685 C   0  0  0  0  0  0  0  0  0  0  0  0
    3.9616   -2.4670    0.2605 C   0  0  0  0  0  0  0  0  0  0  0  0
   -0.2840   -0.3123   -0.5915 C   0  0  0  0  0  0  0  0  0  0  0  0
    1.1125   -0.3924   -0.9890 C   0  0  0  0  0  0  0  0  0  0  0  0
   -2.9640   -0.1613    0.1691 C   0  0  0  0  0  0  0  0  0  0  0  0
    3.7204    0.7010    1.3213 C   0  0  0  0  0  0  0  0  0  0  0  0
    5.2816    0.5127   -0.5131 C   0  0  0  0  0  0  0  0  0  0  0  0
   -2.4270    0.7993   -0.6881 C   0  0  0  0  0  0  0  0  0  0  0  0
   -1.0870    0.7238   -1.0683 C   0  0  0  0  0  0  0  0  0  0  0  0
   -0.8210   -1.2730    0.2658 C   0  0  0  0  0  0  0  0  0  0  0  0
   -2.1608   -1.1973    0.6461 C   0  0  0  0  0  0  0  0  0  0  0  0
   -4.3432   -0.1033    0.5722 C   0  0  0  0  0  0  0  0  0  0  0  0
    4.4093    1.8186    1.7929 C   0  0  0  0  0  0  0  0  0  0  0  0
    5.9705    1.6303   -0.0415 C   0  0  0  0  0  0  0  0  0  0  0  0
    5.5344    2.2831    1.1116 C   0  0  0  0  0  0  0  0  0  0  0  0
   -5.2623   -1.0932    0.3232 C   0  0  0  0  0  0  0  0  0  0  0  0
   -5.0686    0.8841    1.2654 C   0  0  0  0  0  0  0  0  0  0  0  0
   -3.8760    1.5972   -2.3967 C   0  0  0  0  0  0  0  0  0  0  0  0
    3.5400   -1.2071   -1.4340 H   0  0  0  0  0  0  0  0  0  0  0  0
    5.0257   -2.5764    0.0209 H   0  0  0  0  0  0  0  0  0  0  0  0
    3.8756   -2.4475    1.3535 H   0  0  0  0  0  0  0  0  0  0  0  0
    1.6519   -1.3359    0.8034 H   0  0  0  0  0  0  0  0  0  0  0  0
    2.8581    0.3543    1.8836 H   0  0  0  0  0  0  0  0  0  0  0  0
    5.6326    0.0118   -1.4113 H   0  0  0  0  0  0  0  0  0  0  0  0
   -0.6790    1.4820   -1.7327 H   0  0  0  0  0  0  0  0  0  0  0  0
   -0.2397   -2.1124    0.6358 H   0  0  0  0  0  0  0  0  0  0  0  0
   -2.5597   -1.9581    1.3133 H   0  0  0  0  0  0  0  0  0  0  0  0
    3.6576   -4.4793    0.1327 H   0  0  0  0  0  0  0  0  0  0  0  0
    3.3231   -3.6828   -1.2511 H   0  0  0  0  0  0  0  0  0  0  0  0
    4.0722    2.3250    2.6926 H   0  0  0  0  0  0  0  0  0  0  0  0
    6.8468    1.9917   -0.5716 H   0  0  0  0  0  0  0  0  0  0  0  0
    6.0714    3.1525    1.4793 H   0  0  0  0  0  0  0  0  0  0  0  0
   -5.1959   -2.0491   -0.1778 H   0  0  0  0  0  0  0  0  0  0  0  0
   -4.7208    1.8330    1.6491 H   0  0  0  0  0  0  0  0  0  0  0  0
   -7.3324   -1.1273    0.8662 H   0  0  0  0  0  0  0  0  0  0  0  0
   -3.1598    1.4473   -3.2108 H   0  0  0  0  0  0  0  0  0  0  0  0
   -4.5430    0.7329   -2.3223 H   0  0  0  0  0  0  0  0  0  0  0  0
   -4.4772    2.4827   -2.6203 H   0  0  0  0  0  0  0  0  0  0  0  0
  1 15  1  0  0  0  0
  1 25  1  0  0  0  0
  2 11  2  0  0  0  0
  3  7  1  0  0  0  0
  3 11  1  0  0  0  0
  3 29  1  0  0  0  0
  4  9  1  0  0  0  0
  4 35  1  0  0  0  0
  4 36  1  0  0  0  0
  5  6  1  0  0  0  0
  5 23  1  0  0  0  0
  5 42  1  0  0  0  0
  6 24  2  0  0  0  0
  7  8  1  0  0  0  0
  7  9  1  0  0  0  0
  7 26  1  0  0  0  0
  8 13  2  0  0  0  0
  8 14  1  0  0  0  0
  9 27  1  0  0  0  0
  9 28  1  0  0  0  0
 10 11  1  0  0  0  0
 10 16  2  0  0  0  0
 10 17  1  0  0  0  0
 12 15  2  0  0  0  0
 12 18  1  0  0  0  0
 12 19  1  0  0  0  0
 13 20  1  0  0  0  0
 13 30  1  0  0  0  0
 14 21  2  0  0  0  0
 14 31  1  0  0  0  0
 15 16  1  0  0  0  0
 16 32  1  0  0  0  0
 17 18  2  0  0  0  0
 17 33  1  0  0  0  0
 18 34  1  0  0  0  0
 19 23  2  0  0  0  0
 19 24  1  0  0  0  0
 20 22  2  0  0  0  0
 20 37  1  0  0  0  0
 21 22  1  0  0  0  0
 21 38  1  0  0  0  0
 22 39  1  0  0  0  0
 23 40  1  0  0  0  0
 24 41  1  0  0  0  0
 25 43  1  0  0  0  0
 25 44  1  0  0  0  0
 25 45  1  0  0  0  0
M  END
> <PUBCHEM_COMPOUND_CID>
90354015

> <PUBCHEM_CONFORMER_RMSD>
0.8

> <PUBCHEM_CONFORMER_DIVERSEORDER>
1
46
54
48
69
71
53
66
27
57
64
26
28
65
35
58
51
63
30
60
44
24
14
29
20
25
49
5
59
8
43
7
33
39
50
67
18
11
68
62
41
17
12
22
21
31
38
32
40
23
55
61
45
42
34
52
3
19
37
56
70
16
47
2
13
9
36
6
4
15
10

> <PUBCHEM_MMFF94_PARTIAL_CHARGES>
39
1 -0.36
10 0.09
11 0.54
12 0.05
13 -0.15
14 -0.15
15 0.08
16 -0.15
17 -0.15
18 -0.15
19 -0.05
2 -0.57
20 -0.15
21 -0.15
22 -0.15
23 -0.3
24 0.14
25 0.28
29 0.37
3 -0.73
30 0.15
31 0.15
32 0.15
33 0.15
34 0.15
35 0.36
36 0.36
37 0.15
38 0.15
39 0.15
4 -0.99
40 0.15
41 0.15
42 0.27
5 0.3
6 -0.71
7 0.44
8 -0.14
9 0.27

> <PUBCHEM_EFFECTIVE_ROTOR_COUNT>
7

> <PUBCHEM_PHARMACOPHORE_FEATURES>
10
1 1 acceptor
1 2 acceptor
1 3 donor
1 4 cation
1 4 donor
1 5 donor
1 6 acceptor
5 5 6 19 23 24 rings
6 10 12 15 16 17 18 rings
6 8 13 14 20 21 22 rings

> <PUBCHEM_HEAVY_ATOM_COUNT>
25

> <PUBCHEM_ATOM_DEF_STEREO_COUNT>
0

> <PUBCHEM_ATOM_UDEF_STEREO_COUNT>
1

> <PUBCHEM_BOND_DEF_STEREO_COUNT>
0

> <PUBCHEM_BOND_UDEF_STEREO_COUNT>
0

> <PUBCHEM_ISOTOPIC_ATOM_COUNT>
0

> <PUBCHEM_COMPONENT_COUNT>
1

> <PUBCHEM_CACTVS_TAUTO_COUNT>
7

> <PUBCHEM_CONFORMER_ID>
0562B15F00000001

> <PUBCHEM_MMFF94_ENERGY>
71.7846

> <PUBCHEM_FEATURE_SELFOVERLAP>
50.749

> <PUBCHEM_SHAPE_FINGERPRINT>
10 15 17895472630968317352
10165383 225 18337397132402481196
10319926 262 17677314023575040008
11475781 23 16879328062190689943
11545043 162 17969782982117238862
11595378 159 17168412801526103788
12236239 1 16056881350952163620
12403259 415 18334858268751909279
12507560 40 18261108539367376686
12596602 18 18272376360652226051
12616971 3 17203038604348561670
12730499 353 18411421713697722762
13533116 47 18340493265955602698
13583140 156 18341036446179367814
13675066 3 18186802439692473471
13955234 65 18340483375331793714
146900 427 18202562882499186786
15183329 4 11095894756335576956
17857418 61 14273454794833550353
1813 80 15864077550331183366
19784866 240 13623522454916180520
20567600 247 12829488194451972729
21033648 29 18261100855481259220
21130935 74 18337118878414632587
21315764 119 13614256883562285912
22122407 14 17560815341498824961
23559900 14 18115024083464972134
23569914 2 17695861676276707969
268830 7 18059855021951409323
2838139 119 17560793360236440168
3004659 81 11241968192211684872
3178227 256 18412543181588920466
3545911 37 18408888443006848910
4058900 60 14907361684525749559
5104073 3 18042400244590122072
542803 24 17418094321165944023
59755656 520 17917711335396755366
6697151 62 17760905378261153174
9841814 1 16153718638961855358

> <PUBCHEM_SHAPE_MULTIPOLES>
482.83
16.09
2.39
1.62
4.58
1.38
-0.46
-5.24
5.91
-3.47
0.1
0.99
-0.91
1.94

> <PUBCHEM_SHAPE_SELFOVERLAP>
1044.556

> <PUBCHEM_SHAPE_VOLUME>
265.2

> <PUBCHEM_COORDINATE_TYPE>
2
5
10

$$$$
85469696
  -OEChem-05102415133D

 44 46  0     1  0  0  0  0  0999 V2000
   -3.4438    2.7694    0.6816 O   0  0  0  0  0  0  0  0  0  0  0  0
    2.9248    1.9355    0.4196 O   0  0  0  0  0  0  0  0  0  0  0  0
   -1.5354   -0.9063   -2.2197 O   0  0  0  0  0  0  0  0  0  0  0  0
   -1.8609    0.7678   -0.6486 N   0  0  0  0  0  0  0  0  0  0  0  0
    6.2719   -1.1017    1.0377 N   0  0  0  0  0  0  0  0  0  0  0  0
    6.6820   -0.1312    0.2033 N   0  0  0  0  0  0  0  0  0  0  0  0
   -3.2779    0.9387   -0.8767 C   0  0  1  0  0  0  0  0  0  0  0  0
   -4.0789   -0.0116   -0.0130 C   0  0  0  0  0  0  0  0  0  0  0  0
   -3.6857    2.4002   -0.6721 C   0  0  0  0  0  0  0  0  0  0  0  0
    0.3357   -0.2250   -0.9816 C   0  0  0  0  0  0  0  0  0  0  0  0
   -1.0710   -0.1554   -1.3436 C   0  0  0  0  0  0  0  0  0  0  0  0
    3.0336   -0.3603   -0.2842 C   0  0  0  0  0  0  0  0  0  0  0  0
    2.3240    0.8264   -0.0991 C   0  0  0  0  0  0  0  0  0  0  0  0
   -3.6262   -0.3433    1.2640 C   0  0  0  0  0  0  0  0  0  0  0  0
   -5.2699   -0.5557   -0.4941 C   0  0  0  0  0  0  0  0  0  0  0  0
    0.9751    0.8940   -0.4479 C   0  0  0  0  0  0  0  0  0  0  0  0
    1.0454   -1.4116   -1.1667 C   0  0  0  0  0  0  0  0  0  0  0  0
    2.3942   -1.4791   -0.8182 C   0  0  0  0  0  0  0  0  0  0  0  0
    4.4244   -0.4523    0.0701 C   0  0  0  0  0  0  0  0  0  0  0  0
   -4.3643   -1.2192    2.0601 C   0  0  0  0  0  0  0  0  0  0  0  0
   -6.0080   -1.4316    0.3020 C   0  0  0  0  0  0  0  0  0  0  0  0
   -5.5554   -1.7631    1.5792 C   0  0  0  0  0  0  0  0  0  0  0  0
    4.9283   -1.3329    0.9961 C   0  0  0  0  0  0  0  0  0  0  0  0
    5.5490    0.2617   -0.3849 C   0  0  0  0  0  0  0  0  0  0  0  0
    2.8891    2.0868    1.8367 C   0  0  0  0  0  0  0  0  0  0  0  0
   -3.4631    0.6834   -1.9282 H   0  0  0  0  0  0  0  0  0  0  0  0
   -1.4598    1.2912    0.1228 H   0  0  0  0  0  0  0  0  0  0  0  0
   -3.0989    3.0618   -1.3182 H   0  0  0  0  0  0  0  0  0  0  0  0
   -4.7499    2.5475   -0.8847 H   0  0  0  0  0  0  0  0  0  0  0  0
   -2.7104    0.0729    1.6740 H   0  0  0  0  0  0  0  0  0  0  0  0
   -5.6343   -0.3038   -1.4864 H   0  0  0  0  0  0  0  0  0  0  0  0
    0.4612    1.8428   -0.3194 H   0  0  0  0  0  0  0  0  0  0  0  0
    0.5647   -2.2958   -1.5774 H   0  0  0  0  0  0  0  0  0  0  0  0
    2.9291   -2.4133   -0.9741 H   0  0  0  0  0  0  0  0  0  0  0  0
   -4.0138   -1.4753    3.0556 H   0  0  0  0  0  0  0  0  0  0  0  0
   -6.9356   -1.8549   -0.0721 H   0  0  0  0  0  0  0  0  0  0  0  0
   -6.1307   -2.4443    2.1993 H   0  0  0  0  0  0  0  0  0  0  0  0
    4.4685   -2.0870    1.6199 H   0  0  0  0  0  0  0  0  0  0  0  0
   -3.7119    3.6993    0.7751 H   0  0  0  0  0  0  0  0  0  0  0  0
    5.5946    1.0524   -1.1207 H   0  0  0  0  0  0  0  0  0  0  0  0
    6.9652   -1.5671    1.6100 H   0  0  0  0  0  0  0  0  0  0  0  0
    1.8567    2.2054    2.1808 H   0  0  0  0  0  0  0  0  0  0  0  0
    3.3532    1.2310    2.3364 H   0  0  0  0  0  0  0  0  0  0  0  0
    3.4494    2.9886    2.0985 H   0  0  0  0  0  0  0  0  0  0  0  0
  1  9  1  0  0  0  0
  1 39  1  0  0  0  0
  2 13  1  0  0  0  0
  2 25  1  0  0  0  0
  3 11  2  0  0  0  0
  4  7  1  0  0  0  0
  4 11  1  0  0  0  0
  4 27  1  0  0  0  0
  5  6  1  0  0  0  0
  5 23  1  0  0  0  0
  5 41  1  0  0  0  0
  6 24  2  0  0  0  0
  7  8  1  0  0  0  0
  7  9  1  0  0  0  0
  7 26  1  0  0  0  0
  8 14  2  0  0  0  0
  8 15  1  0  0  0  0
  9 28  1  0  0  0  0
  9 29  1  0  0  0  0
 10 11  1  0  0  0  0
 10 16  2  0  0  0  0
 10 17  1  0  0  0  0
 12 13  2  0  0  0  0
 12 18  1  0  0  0  0
 12 19  1  0  0  0  0
 13 16  1  0  0  0  0
 14 20  1  0  0  0  0
 14 30  1  0  0  0  0
 15 21  2  0  0  0  0
 15 31  1  0  0  0  0
 16 32  1  0  0  0  0
 17 18  2  0  0  0  0
 17 33  1  0  0  0  0
 18 34  1  0  0  0  0
 19 23  2  0  0  0  0
 19 24  1  0  0  0  0
 20 22  2  0  0  0  0
 20 35  1  0  0  0  0
 21 22  1  0  0  0  0
 21 36  1  0  0  0  0
 22 37  1  0  0  0  0
 23 38  1  0  0  0  0
 24 40  1  0  0  0  0
 25 42  1  0  0  0  0
 25 43  1  0  0  0  0
 25 44  1  0  0  0  0
M  END
> <PUBCHEM_COMPOUND_CID>
85469696

> <PUBCHEM_CONFORMER_RMSD>
0.8

> <PUBCHEM_CONFORMER_DIVERSEORDER>
1
33
30
15
13
39
10
14
6
36
23
34
22
5
16
21
17
35
27
12
26
28
8
37
31
38
40
2
18
20
19
29
4
11
24
32
7
3
9
25

> <PUBCHEM_MMFF94_PARTIAL_CHARGES>
38
1 -0.68
10 0.09
11 0.54
12 0.05
13 0.08
14 -0.15
15 -0.15
16 -0.15
17 -0.15
18 -0.15
19 -0.05
2 -0.36
20 -0.15
21 -0.15
22 -0.15
23 -0.3
24 0.14
25 0.28
27 0.37
3 -0.57
30 0.15
31 0.15
32 0.15
33 0.15
34 0.15
35 0.15
36 0.15
37 0.15
38 0.15
39 0.4
4 -0.73
40 0.15
41 0.27
5 0.3
6 -0.71
7 0.44
8 -0.14
9 0.28

> <PUBCHEM_EFFECTIVE_ROTOR_COUNT>
7

> <PUBCHEM_PHARMACOPHORE_FEATURES>
10
1 1 acceptor
1 1 donor
1 2 acceptor
1 3 acceptor
1 4 donor
1 5 donor
1 6 acceptor
5 5 6 19 23 24 rings
6 10 12 13 16 17 18 rings
6 8 14 15 20 21 22 rings

> <PUBCHEM_HEAVY_ATOM_COUNT>
25

> <PUBCHEM_ATOM_DEF_STEREO_COUNT>
1

> <PUBCHEM_ATOM_UDEF_STEREO_COUNT>
0

> <PUBCHEM_BOND_DEF_STEREO_COUNT>
0

> <PUBCHEM_BOND_UDEF_STEREO_COUNT>
0

> <PUBCHEM_ISOTOPIC_ATOM_COUNT>
0

> <PUBCHEM_COMPONENT_COUNT>
1

> <PUBCHEM_CACTVS_TAUTO_COUNT>
9

> <PUBCHEM_CONFORMER_ID>
05182A0000000001

> <PUBCHEM_MMFF94_ENERGY>
73.7234

> <PUBCHEM_FEATURE_SELFOVERLAP>
50.75

> <PUBCHEM_SHAPE_FINGERPRINT>
10 15 18341889714905941802
11135926 11 11169906148503768304
11315181 36 17748830722010727749
11545043 162 18333447629735681689
11646440 116 17490149712476506232
12107698 1 18411136948264425601
12403259 118 18341615884517876717
12507557 5 17917989456272967593
12596602 18 18259982648382810632
12616971 3 17346313838555506861
12633257 1 18201449120212432643
13583140 156 18340199709504283581
13782708 43 17968093097502601434
14251752 14 11167947943990234430
14341114 176 18334859462758260980
14341114 328 16916799534460638395
14849402 71 17488739133569014824
14950920 106 18270974547745838675
15081414 286 17346323666010106660
15188451 53 17967532398159307887
15238133 3 15769784584268361536
1601671 61 17917703570870973516
17844677 252 18408326596554619852
17857418 61 17022619762626741123
18222031 100 16153704349162582236
18769570 83 14261352444724808162
200 152 13190339067149595439
21033648 29 17988628671494354937
21623969 137 18408041797600353974
21756936 100 14908180841947176711
22393880 68 8574417699798820725
23402539 116 13695871406698111622
23559900 14 17604149345787385389
23569943 247 16987164804015997350
25147074 1 17773868895161188132
2838139 119 12679460863523201730
3004659 81 15502654949083067767
3009799 131 11602821328505506614
392239 28 18340215167255489027
465052 167 18334858316687795190
5104073 3 18198064677029194755
5385378 56 16487266439167335262
5718773 13 17823706455046937619
6126387 218 11815622935713389966
7495541 125 18040718082637425036
960060 61 12757141402980205131

> <PUBCHEM_SHAPE_MULTIPOLES>
481.94
15.84
2.14
1.64
5.09
1.12
0.24
-5.56
5.58
-1.57
0.65
-0.82
-0.24
1.39

> <PUBCHEM_SHAPE_SELFOVERLAP>
1044.999

> <PUBCHEM_SHAPE_VOLUME>
263.8

> <PUBCHEM_COORDINATE_TYPE>
2
5
10

$$$$
118662971
  -OEChem-05102415133D

 50 52  0     0  0  0  0  0  0999 V2000
    3.6636   -2.1913   -0.4665 O   0  0  0  0  0  0  0  0  0  0  0  0
   -0.6216   -0.5736    1.7204 O   0  0  0  0  0  0  0  0  0  0  0  0
   -6.5622   -0.5918   -1.3273 O   0  0  0  0  0  0  0  0  0  0  0  0
   -0.5880    1.6946    1.2399 N   0  0  0  0  0  0  0  0  0  0  0  0
   -5.0148   -1.8042   -0.0973 N   0  0  0  0  0  0  0  0  0  0  0  0
    7.3085    0.4092   -1.3393 N   0  0  0  0  0  0  0  0  0  0  0  0
    7.6359   -0.5621   -0.4700 N   0  0  0  0  0  0  0  0  0  0  0  0
   -1.9518    1.9693    1.6316 C   0  0  0  0  0  0  0  0  0  0  0  0
   -2.9088    1.8075    0.4861 C   0  0  0  0  0  0  0  0  0  0  0  0
    4.0571    0.1071    0.1168 C   0  0  0  0  0  0  0  0  0  0  0  0
    1.3882    0.3153    0.9026 C   0  0  0  0  0  0  0  0  0  0  0  0
    3.2115   -0.9975    0.0137 C   0  0  0  0  0  0  0  0  0  0  0  0
   -3.7311    0.6829    0.4171 C   0  0  0  0  0  0  0  0  0  0  0  0
    1.8770   -0.8933    0.4066 C   0  0  0  0  0  0  0  0  0  0  0  0
   -4.6207    0.5334   -0.6468 C   0  0  0  0  0  0  0  0  0  0  0  0
   -0.0033    0.4248    1.3106 C   0  0  0  0  0  0  0  0  0  0  0  0
    3.5683    1.3156    0.6132 C   0  0  0  0  0  0  0  0  0  0  0  0
    5.4356    0.0221   -0.2841 C   0  0  0  0  0  0  0  0  0  0  0  0
    2.2339    1.4199    1.0058 C   0  0  0  0  0  0  0  0  0  0  0  0
   -2.9762    2.7828   -0.5090 C   0  0  0  0  0  0  0  0  0  0  0  0
   -4.6882    1.5088   -1.6419 C   0  0  0  0  0  0  0  0  0  0  0  0
   -3.8661    2.6336   -1.5727 C   0  0  0  0  0  0  0  0  0  0  0  0
   -5.4787   -0.6388   -0.7184 C   0  0  0  0  0  0  0  0  0  0  0  0
    6.0021    0.7948   -1.2683 C   0  0  0  0  0  0  0  0  0  0  0  0
    6.4878   -0.7944    0.1718 C   0  0  0  0  0  0  0  0  0  0  0  0
   -5.7400   -3.0544   -0.1012 C   0  0  0  0  0  0  0  0  0  0  0  0
   -6.8402   -3.0607    0.9398 C   0  0  0  0  0  0  0  0  0  0  0  0
    2.7219   -3.2596   -0.5330 C   0  0  0  0  0  0  0  0  0  0  0  0
   -1.9883    2.9984    2.0070 H   0  0  0  0  0  0  0  0  0  0  0  0
   -2.2245    1.3146    2.4673 H   0  0  0  0  0  0  0  0  0  0  0  0
   -0.0705    2.4698    0.8391 H   0  0  0  0  0  0  0  0  0  0  0  0
   -3.6788   -0.0445    1.2224 H   0  0  0  0  0  0  0  0  0  0  0  0
    1.1738   -1.7165    0.3418 H   0  0  0  0  0  0  0  0  0  0  0  0
    4.2131    2.1860    0.7122 H   0  0  0  0  0  0  0  0  0  0  0  0
    1.9026    2.3697    1.4153 H   0  0  0  0  0  0  0  0  0  0  0  0
   -2.3404    3.6633   -0.4660 H   0  0  0  0  0  0  0  0  0  0  0  0
   -5.3714    1.4094   -2.4814 H   0  0  0  0  0  0  0  0  0  0  0  0
   -3.9178    3.3926   -2.3479 H   0  0  0  0  0  0  0  0  0  0  0  0
    5.6085    1.5672   -1.9147 H   0  0  0  0  0  0  0  0  0  0  0  0
    6.4702   -1.5497    0.9449 H   0  0  0  0  0  0  0  0  0  0  0  0
   -4.0973   -1.8207    0.3347 H   0  0  0  0  0  0  0  0  0  0  0  0
   -6.1635   -3.2132   -1.0985 H   0  0  0  0  0  0  0  0  0  0  0  0
   -5.0203   -3.8540    0.1003 H   0  0  0  0  0  0  0  0  0  0  0  0
    8.0289    0.7648   -1.9553 H   0  0  0  0  0  0  0  0  0  0  0  0
   -6.4312   -2.8939    1.9419 H   0  0  0  0  0  0  0  0  0  0  0  0
   -7.3615   -4.0228    0.9381 H   0  0  0  0  0  0  0  0  0  0  0  0
   -7.5766   -2.2738    0.7466 H   0  0  0  0  0  0  0  0  0  0  0  0
    3.2522   -4.1291   -0.9356 H   0  0  0  0  0  0  0  0  0  0  0  0
    1.9063   -3.0387   -1.2301 H   0  0  0  0  0  0  0  0  0  0  0  0
    2.3608   -3.5447    0.4612 H   0  0  0  0  0  0  0  0  0  0  0  0
  1 12  1  0  0  0  0
  1 28  1  0  0  0  0
  2 16  2  0  0  0  0
  3 23  2  0  0  0  0
  4  8  1  0  0  0  0
  4 16  1  0  0  0  0
  4 31  1  0  0  0  0
  5 23  1  0  0  0  0
  5 26  1  0  0  0  0
  5 41  1  0  0  0  0
  6  7  1  0  0  0  0
  6 24  1  0  0  0  0
  6 44  1  0  0  0  0
  7 25  2  0  0  0  0
  8  9  1  0  0  0  0
  8 29  1  0  0  0  0
  8 30  1  0  0  0  0
  9 13  2  0  0  0  0
  9 20  1  0  0  0  0
 10 12  2  0  0  0  0
 10 17  1  0  0  0  0
 10 18  1  0  0  0  0
 11 14  2  0  0  0  0
 11 16  1  0  0  0  0
 11 19  1  0  0  0  0
 12 14  1  0  0  0  0
 13 15  1  0  0  0  0
 13 32  1  0  0  0  0
 14 33  1  0  0  0  0
 15 21  2  0  0  0  0
 15 23  1  0  0  0  0
 17 19  2  0  0  0  0
 17 34  1  0  0  0  0
 18 24  2  0  0  0  0
 18 25  1  0  0  0  0
 19 35  1  0  0  0  0
 20 22  2  0  0  0  0
 20 36  1  0  0  0  0
 21 22  1  0  0  0  0
 21 37  1  0  0  0  0
 22 38  1  0  0  0  0
 24 39  1  0  0  0  0
 25 40  1  0  0  0  0
 26 27  1  0  0  0  0
 26 42  1  0  0  0  0
 26 43  1  0  0  0  0
 27 45  1  0  0  0  0
 27 46  1  0  0  0  0
 27 47  1  0  0  0  0
 28 48  1  0  0  0  0
 28 49  1  0  0  0  0
 28 50  1  0  0  0  0
M  END
> <PUBCHEM_COMPOUND_CID>
118662971

> <PUBCHEM_CONFORMER_RMSD>
1

> <PUBCHEM_CONFORMER_DIVERSEORDER>
22
69
45
8
92
38
93
23
70
52
73
98
54
72
42
12
84
76
37
61
16
1
64
100
7
51
83
32
96
46
63
39
79
30
65
27
82
48
77
29
47
21
31
97
50
6
81
3
28
90
60
78
87
11
88
56
13
18
14
86
49
41
40
35
19
95
80
44
71
59
94
91
24
67
89
55
68
53
17
58
66
26
75
10
74
36
99
20
4
33
43
9
25
57
2
34
85
5
15
62

> <PUBCHEM_MMFF94_PARTIAL_CHARGES>
39
1 -0.36
10 0.05
11 0.09
12 0.08
13 -0.15
14 -0.15
15 0.09
16 0.54
17 -0.15
18 -0.05
19 -0.15
2 -0.57
20 -0.15
21 -0.15
22 -0.15
23 0.54
24 -0.3
25 0.14
26 0.3
28 0.28
3 -0.57
31 0.37
32 0.15
33 0.15
34 0.15
35 0.15
36 0.15
37 0.15
38 0.15
39 0.15
4 -0.73
40 0.15
41 0.37
44 0.27
5 -0.73
6 0.3
7 -0.71
8 0.44
9 -0.14

> <PUBCHEM_EFFECTIVE_ROTOR_COUNT>
9

> <PUBCHEM_PHARMACOPHORE_FEATURES>
10
1 1 acceptor
1 2 acceptor
1 3 acceptor
1 4 donor
1 5 donor
1 6 donor
1 7 acceptor
5 6 7 18 24 25 rings
6 10 11 12 14 17 19 rings
6 9 13 15 20 21 22 rings

> <PUBCHEM_HEAVY_ATOM_COUNT>
28

> <PUBCHEM_ATOM_DEF_STEREO_COUNT>
0

> <PUBCHEM_ATOM_UDEF_STEREO_COUNT>
0

> <PUBCHEM_BOND_DEF_STEREO_COUNT>
0

> <PUBCHEM_BOND_UDEF_STEREO_COUNT>
0

> <PUBCHEM_ISOTOPIC_ATOM_COUNT>
0

> <PUBCHEM_COMPONENT_COUNT>
1

> <PUBCHEM_CACTVS_TAUTO_COUNT>
18

> <PUBCHEM_CONFORMER_ID>
0712A73B00000016

> <PUBCHEM_MMFF94_ENERGY>
74.3196

> <PUBCHEM_FEATURE_SELFOVERLAP>
50.748

> <PUBCHEM_SHAPE_FINGERPRINT>
10554248 39 16660647315818895994
10928967 22 16629661995183017901
11089746 13 16515688836351873860
11315621 246 18334289890619176317
11434127 23 18113897152645061791
117089 54 18119814870708730027
12895837 130 17386007213747120709
13103583 49 12679458698996847097
13631057 29 18410574002864323811
13673619 4 18201720704216772065
13690498 29 18334007324889525487
13941219 33 13830141571996195301
14849402 71 9366187057602148714
15142383 8 9223236230748719986
15183329 4 18335137570865506170
15461852 350 18408328783446756500
15537594 2 17489296478062230071
17780758 139 11671772780735909325
18608769 82 18339924917207223599
18643901 69 18410575111466838255
20737093 207 17386544922567971834
21054139 6 18272652321069970758
21196832 93 18337676420081016034
21307412 95 18267286799359491839
21403212 168 12535355593476352141
22288116 15 18260270758561611014
22393880 68 18189603952644641225
23559900 14 18342727507895470385
23569917 315 18270971151023903822
25269216 80 17095518552982187515
2838139 119 16877947105413772300
3117164 225 9799682697289355451
3737641 26 14045473185134563460
439807 62 18411136931332462955
484989 97 18341898553859141834
9980921 7 18116721914841135980
999808 66 17632863035674012501

> <PUBCHEM_SHAPE_MULTIPOLES>
538.69
20.18
3.29
1.46
8.95
1.81
-0.02
8.98
7.82
-5.61
0.23
-0.75
-0.63
1.43

> <PUBCHEM_SHAPE_SELFOVERLAP>
1160.754

> <PUBCHEM_SHAPE_VOLUME>
297.1

> <PUBCHEM_COORDINATE_TYPE>
2
5
10

$$$$
90353896
  -OEChem-05102415143D

 56 59  0     1  0  0  0  0  0999 V2000
   -3.7834   -4.7725   -0.3323 O   0  0  0  0  0  0  0  0  0  0  0  0
   -0.8026    0.9362   -2.0685 O   0  0  0  0  0  0  0  0  0  0  0  0
    4.2117    1.4907   -1.5098 O   0  0  0  0  0  0  0  0  0  0  0  0
   -3.2515   -2.0396    0.2594 N   0  0  0  0  0  0  0  0  0  0  0  0
   -1.4472    0.1990    0.0332 N   0  0  0  0  0  0  0  0  0  0  0  0
    6.7663   -0.6939    1.5741 N   0  0  0  0  0  0  0  0  0  0  0  0
    7.1560   -1.0328    0.3334 N   0  0  0  0  0  0  0  0  0  0  0  0
   -3.6697   -0.6872    0.6222 C   0  0  0  0  0  0  0  0  0  0  0  0
   -2.8711    0.3680   -0.1601 C   0  0  1  0  0  0  0  0  0  0  0  0
   -3.6131   -2.9980    1.3131 C   0  0  0  0  0  0  0  0  0  0  0  0
   -3.8520   -2.4464   -1.0188 C   0  0  0  0  0  0  0  0  0  0  0  0
   -3.1773   -4.4029    0.9067 C   0  0  0  0  0  0  0  0  0  0  0  0
   -3.4116   -3.8646   -1.3701 C   0  0  0  0  0  0  0  0  0  0  0  0
   -3.2987    1.7752    0.2061 C   0  0  0  0  0  0  0  0  0  0  0  0
   -2.6661    2.4461    1.2528 C   0  0  0  0  0  0  0  0  0  0  0  0
   -4.3244    2.3993   -0.5037 C   0  0  0  0  0  0  0  0  0  0  0  0
   -0.5241    0.5028   -0.9536 C   0  0  0  0  0  0  0  0  0  0  0  0
    0.8983    0.2486   -0.6081 C   0  0  0  0  0  0  0  0  0  0  0  0
   -3.0597    3.7413    1.5898 C   0  0  0  0  0  0  0  0  0  0  0  0
   -4.7181    3.6945   -0.1666 C   0  0  0  0  0  0  0  0  0  0  0  0
   -4.0858    4.3653    0.8803 C   0  0  0  0  0  0  0  0  0  0  0  0
    1.9085    0.9900   -1.2208 C   0  0  0  0  0  0  0  0  0  0  0  0
    1.2233   -0.7309    0.3306 C   0  0  0  0  0  0  0  0  0  0  0  0
    3.5689   -0.2271    0.0438 C   0  0  0  0  0  0  0  0  0  0  0  0
    3.2438    0.7522   -0.8949 C   0  0  0  0  0  0  0  0  0  0  0  0
    2.5586   -0.9688    0.6564 C   0  0  0  0  0  0  0  0  0  0  0  0
    4.9389   -0.4873    0.3958 C   0  0  0  0  0  0  0  0  0  0  0  0
    5.4473   -0.3588    1.6652 C   0  0  0  0  0  0  0  0  0  0  0  0
    6.0354   -0.9046   -0.3820 C   0  0  0  0  0  0  0  0  0  0  0  0
    4.5992    2.7061   -0.8736 C   0  0  0  0  0  0  0  0  0  0  0  0
   -3.4764   -0.5215    1.6919 H   0  0  0  0  0  0  0  0  0  0  0  0
   -4.7508   -0.5474    0.4866 H   0  0  0  0  0  0  0  0  0  0  0  0
   -3.0617    0.2491   -1.2339 H   0  0  0  0  0  0  0  0  0  0  0  0
   -3.1180   -2.7360    2.2552 H   0  0  0  0  0  0  0  0  0  0  0  0
   -4.6978   -2.9848    1.4819 H   0  0  0  0  0  0  0  0  0  0  0  0
   -3.5429   -1.7847   -1.8338 H   0  0  0  0  0  0  0  0  0  0  0  0
   -4.9475   -2.4146   -0.9528 H   0  0  0  0  0  0  0  0  0  0  0  0
   -2.0866   -4.4783    0.8177 H   0  0  0  0  0  0  0  0  0  0  0  0
   -3.4985   -5.1261    1.6630 H   0  0  0  0  0  0  0  0  0  0  0  0
   -3.9062   -4.1915   -2.2904 H   0  0  0  0  0  0  0  0  0  0  0  0
   -2.3290   -3.9223   -1.5368 H   0  0  0  0  0  0  0  0  0  0  0  0
   -1.1362   -0.0734    0.9600 H   0  0  0  0  0  0  0  0  0  0  0  0
   -1.8754    1.9816    1.8350 H   0  0  0  0  0  0  0  0  0  0  0  0
   -4.8266    1.8867   -1.3197 H   0  0  0  0  0  0  0  0  0  0  0  0
   -2.5700    4.2626    2.4072 H   0  0  0  0  0  0  0  0  0  0  0  0
   -5.5174    4.1802   -0.7186 H   0  0  0  0  0  0  0  0  0  0  0  0
   -4.3929    5.3733    1.1434 H   0  0  0  0  0  0  0  0  0  0  0  0
    1.6665    1.7584   -1.9512 H   0  0  0  0  0  0  0  0  0  0  0  0
    0.4699   -1.3515    0.8067 H   0  0  0  0  0  0  0  0  0  0  0  0
    2.7905   -1.7445    1.3827 H   0  0  0  0  0  0  0  0  0  0  0  0
    5.0062   -0.0647    2.6076 H   0  0  0  0  0  0  0  0  0  0  0  0
    6.0689   -1.1222   -1.4404 H   0  0  0  0  0  0  0  0  0  0  0  0
    7.4554   -0.7127    2.3155 H   0  0  0  0  0  0  0  0  0  0  0  0
    5.4104    3.1528   -1.4551 H   0  0  0  0  0  0  0  0  0  0  0  0
    4.9600    2.5214    0.1429 H   0  0  0  0  0  0  0  0  0  0  0  0
    3.7595    3.4079   -0.8501 H   0  0  0  0  0  0  0  0  0  0  0  0
  1 12  1  0  0  0  0
  1 13  1  0  0  0  0
  2 17  2  0  0  0  0
  3 25  1  0  0  0  0
  3 30  1  0  0  0  0
  4  8  1  0  0  0  0
  4 10  1  0  0  0  0
  4 11  1  0  0  0  0
  5  9  1  0  0  0  0
  5 17  1  0  0  0  0
  5 42  1  0  0  0  0
  6  7  1  0  0  0  0
  6 28  1  0  0  0  0
  6 53  1  0  0  0  0
  7 29  2  0  0  0  0
  8  9  1  0  0  0  0
  8 31  1  0  0  0  0
  8 32  1  0  0  0  0
  9 14  1  0  0  0  0
  9 33  1  0  0  0  0
 10 12  1  0  0  0  0
 10 34  1  0  0  0  0
 10 35  1  0  0  0  0
 11 13  1  0  0  0  0
 11 36  1  0  0  0  0
 11 37  1  0  0  0  0
 12 38  1  0  0  0  0
 12 39  1  0  0  0  0
 13 40  1  0  0  0  0
 13 41  1  0  0  0  0
 14 15  2  0  0  0  0
 14 16  1  0  0  0  0
 15 19  1  0  0  0  0
 15 43  1  0  0  0  0
 16 20  2  0  0  0  0
 16 44  1  0  0  0  0
 17 18  1  0  0  0  0
 18 22  2  0  0  0  0
 18 23  1  0  0  0  0
 19 21  2  0  0  0  0
 19 45  1  0  0  0  0
 20 21  1  0  0  0  0
 20 46  1  0  0  0  0
 21 47  1  0  0  0  0
 22 25  1  0  0  0  0
 22 48  1  0  0  0  0
 23 26  2  0  0  0  0
 23 49  1  0  0  0  0
 24 25  2  0  0  0  0
 24 26  1  0  0  0  0
 24 27  1  0  0  0  0
 26 50  1  0  0  0  0
 27 28  2  0  0  0  0
 27 29  1  0  0  0  0
 28 51  1  0  0  0  0
 29 52  1  0  0  0  0
 30 54  1  0  0  0  0
 30 55  1  0  0  0  0
 30 56  1  0  0  0  0
M  END
> <PUBCHEM_COMPOUND_CID>
90353896

> <PUBCHEM_CONFORMER_RMSD>
1

> <PUBCHEM_CONFORMER_DIVERSEORDER>
3
48
61
58
30
34
37
22
49
56
13
54
52
38
17
62
12
4
59
53
11
16
60
51
27
46
57
55
63
15
5
36
44
35
9
32
8
14
21
40
45
50
31
47
7
29
18
42
20
33
28
2
26
43
19
41
6
10
39
1
25
23
24

> <PUBCHEM_MMFF94_PARTIAL_CHARGES>
42
1 -0.56
10 0.27
11 0.27
12 0.28
13 0.28
14 -0.14
15 -0.15
16 -0.15
17 0.54
18 0.09
19 -0.15
2 -0.57
20 -0.15
21 -0.15
22 -0.15
23 -0.15
24 0.05
25 0.08
26 -0.15
27 -0.05
28 -0.3
29 0.14
3 -0.36
30 0.28
4 -0.81
42 0.37
43 0.15
44 0.15
45 0.15
46 0.15
47 0.15
48 0.15
49 0.15
5 -0.73
50 0.15
51 0.15
52 0.15
53 0.27
6 0.3
7 -0.71
8 0.27
9 0.44

> <PUBCHEM_EFFECTIVE_ROTOR_COUNT>
9.2

> <PUBCHEM_PHARMACOPHORE_FEATURES>
11
1 1 acceptor
1 2 acceptor
1 3 acceptor
1 4 cation
1 5 donor
1 6 donor
1 7 acceptor
5 6 7 27 28 29 rings
6 1 4 10 11 12 13 rings
6 14 15 16 19 20 21 rings
6 18 22 23 24 25 26 rings

> <PUBCHEM_HEAVY_ATOM_COUNT>
30

> <PUBCHEM_ATOM_DEF_STEREO_COUNT>
0

> <PUBCHEM_ATOM_UDEF_STEREO_COUNT>
1

> <PUBCHEM_BOND_DEF_STEREO_COUNT>
0

> <PUBCHEM_BOND_UDEF_STEREO_COUNT>
0

> <PUBCHEM_ISOTOPIC_ATOM_COUNT>
0

> <PUBCHEM_COMPONENT_COUNT>
1

> <PUBCHEM_CACTVS_TAUTO_COUNT>
7

> <PUBCHEM_CONFORMER_ID>
0562B0E800000003

> <PUBCHEM_MMFF94_ENERGY>
83.685

> <PUBCHEM_FEATURE_SELFOVERLAP>
55.823

> <PUBCHEM_SHAPE_FINGERPRINT>
10319688 77 17626926918815389863
11056379 131 18340783618803300423
11545043 162 18201715163571803746
11552529 35 18410011061205282063
11763715 3 17977123558220817229
12107183 9 18118119178516125002
12616971 3 17240492368864332820
12633257 1 18041564633365716124
12788726 201 18266184018058888015
12988421 55 18051133588752818425
13009979 54 18190185761673040559
13540713 5 18041010578357968284
13583140 156 17632289064929584890
14068700 675 18264762332803169087
14565420 104 17481170916184256209
14844126 61 18410576206377881835
15131766 46 15866638429271711981
15250474 111 18261388970873223714
17980427 26 17478602413786650925
19301679 30 18266192784515069475
20028762 73 18335132151097859402
21033648 29 18054525616299447633
24771293 8 18113617924753801092
3383291 50 18412829050026550513
3633792 109 18046897183472621173
397830 11 18058999714286403698
4073 2 18341049628135982474
4144715 1 18342745104982760056
4409770 3 18410291411786758351
4616759 239 18199731614625380114
5104073 3 18114185246250726136
58260988 114 16733566978327537793
59755656 520 18267297630211762581
6058803 2 18115324391367361004
6673363 416 17836105724888177892
6691757 9 18341050714424858113
6700243 42 17770538435501145372
9981440 41 17845092879255065461

> <PUBCHEM_SHAPE_MULTIPOLES>
579.85
15.16
5.78
1.51
25.09
2.62
0
-0.11
-3.23
-14.42
-0.82
0.36
-0.11
-2.28

> <PUBCHEM_SHAPE_SELFOVERLAP>
1249.51

> <PUBCHEM_SHAPE_VOLUME>
319.6

> <PUBCHEM_COORDINATE_TYPE>
2
5
10

$$$$
90354131
  -OEChem-05102415143D

 46 48  0     0  0  0  0  0  0999 V2000
   -1.9843    0.0607    2.0666 O   0  0  0  0  0  0  0  0  0  0  0  0
    0.8885   -4.2240    0.2880 O   0  0  0  0  0  0  0  0  0  0  0  0
    2.3706   -2.5121   -0.2922 N   0  0  0  0  0  0  0  0  0  0  0  0
   -4.7485    1.9917   -1.0060 N   0  0  0  0  0  0  0  0  0  0  0  0
   -5.4752    1.3526   -0.0734 N   0  0  0  0  0  0  0  0  0  0  0  0
    2.5697   -1.1082   -0.6455 C   0  0  0  0  0  0  0  0  0  0  0  0
    2.8138   -0.2255    0.5761 C   0  0  0  0  0  0  0  0  0  0  0  0
    2.9936    1.2307    0.2234 C   0  0  0  0  0  0  0  0  0  0  0  0
   -0.0624   -2.1672   -0.0961 C   0  0  0  0  0  0  0  0  0  0  0  0
    1.0969   -3.0415   -0.0146 C   0  0  0  0  0  0  0  0  0  0  0  0
   -2.2841   -0.4873   -0.2546 C   0  0  0  0  0  0  0  0  0  0  0  0
    3.5762   -3.3276   -0.2461 C   0  0  0  0  0  0  0  0  0  0  0  0
   -0.4830   -1.4590    1.0296 C   0  0  0  0  0  0  0  0  0  0  0  0
   -1.5939   -0.6191    0.9505 C   0  0  0  0  0  0  0  0  0  0  0  0
   -0.7526   -2.0355   -1.3012 C   0  0  0  0  0  0  0  0  0  0  0  0
   -1.8636   -1.1958   -1.3803 C   0  0  0  0  0  0  0  0  0  0  0  0
   -3.4309    0.3744   -0.3587 C   0  0  0  0  0  0  0  0  0  0  0  0
    4.2669    1.7295   -0.0514 C   0  0  0  0  0  0  0  0  0  0  0  0
    1.8865    2.0778    0.1724 C   0  0  0  0  0  0  0  0  0  0  0  0
    4.4332    3.0757   -0.3774 C   0  0  0  0  0  0  0  0  0  0  0  0
    2.0528    3.4240   -0.1535 C   0  0  0  0  0  0  0  0  0  0  0  0
   -3.5162    1.4455   -1.2143 C   0  0  0  0  0  0  0  0  0  0  0  0
   -4.6651    0.3655    0.3183 C   0  0  0  0  0  0  0  0  0  0  0  0
    3.3261    3.9227   -0.4287 C   0  0  0  0  0  0  0  0  0  0  0  0
   -1.4149    1.3519    2.2691 C   0  0  0  0  0  0  0  0  0  0  0  0
    1.7083   -0.7350   -1.2079 H   0  0  0  0  0  0  0  0  0  0  0  0
    3.4198   -1.0457   -1.3370 H   0  0  0  0  0  0  0  0  0  0  0  0
    2.0011   -0.3179    1.3033 H   0  0  0  0  0  0  0  0  0  0  0  0
    3.7053   -0.5751    1.1134 H   0  0  0  0  0  0  0  0  0  0  0  0
    3.3434   -4.3527    0.0532 H   0  0  0  0  0  0  0  0  0  0  0  0
    4.2751   -2.8960    0.4755 H   0  0  0  0  0  0  0  0  0  0  0  0
    4.0321   -3.3432   -1.2401 H   0  0  0  0  0  0  0  0  0  0  0  0
    0.0454   -1.5667    1.9740 H   0  0  0  0  0  0  0  0  0  0  0  0
   -0.4336   -2.5828   -2.1845 H   0  0  0  0  0  0  0  0  0  0  0  0
   -2.3892   -1.1112   -2.3287 H   0  0  0  0  0  0  0  0  0  0  0  0
    5.1367    1.0789   -0.0167 H   0  0  0  0  0  0  0  0  0  0  0  0
    0.8896    1.6982    0.3731 H   0  0  0  0  0  0  0  0  0  0  0  0
    5.4245    3.4640   -0.5921 H   0  0  0  0  0  0  0  0  0  0  0  0
    1.1904    4.0828   -0.1959 H   0  0  0  0  0  0  0  0  0  0  0  0
   -2.8303    1.8655   -1.9371 H   0  0  0  0  0  0  0  0  0  0  0  0
   -5.0121   -0.3174    1.0811 H   0  0  0  0  0  0  0  0  0  0  0  0
    3.4555    4.9705   -0.6834 H   0  0  0  0  0  0  0  0  0  0  0  0
   -5.1563    2.7978   -1.4628 H   0  0  0  0  0  0  0  0  0  0  0  0
   -1.9404    1.8301    3.1002 H   0  0  0  0  0  0  0  0  0  0  0  0
   -1.5244    1.9811    1.3803 H   0  0  0  0  0  0  0  0  0  0  0  0
   -0.3577    1.2572    2.5353 H   0  0  0  0  0  0  0  0  0  0  0  0
  1 14  1  0  0  0  0
  1 25  1  0  0  0  0
  2 10  2  0  0  0  0
  3  6  1  0  0  0  0
  3 10  1  0  0  0  0
  3 12  1  0  0  0  0
  4  5  1  0  0  0  0
  4 22  1  0  0  0  0
  4 43  1  0  0  0  0
  5 23  2  0  0  0  0
  6  7  1  0  0  0  0
  6 26  1  0  0  0  0
  6 27  1  0  0  0  0
  7  8  1  0  0  0  0
  7 28  1  0  0  0  0
  7 29  1  0  0  0  0
  8 18  2  0  0  0  0
  8 19  1  0  0  0  0
  9 10  1  0  0  0  0
  9 13  2  0  0  0  0
  9 15  1  0  0  0  0
 11 14  2  0  0  0  0
 11 16  1  0  0  0  0
 11 17  1  0  0  0  0
 12 30  1  0  0  0  0
 12 31  1  0  0  0  0
 12 32  1  0  0  0  0
 13 14  1  0  0  0  0
 13 33  1  0  0  0  0
 15 16  2  0  0  0  0
 15 34  1  0  0  0  0
 16 35  1  0  0  0  0
 17 22  2  0  0  0  0
 17 23  1  0  0  0  0
 18 20  1  0  0  0  0
 18 36  1  0  0  0  0
 19 21  2  0  0  0  0
 19 37  1  0  0  0  0
 20 24  2  0  0  0  0
 20 38  1  0  0  0  0
 21 24  1  0  0  0  0
 21 39  1  0  0  0  0
 22 40  1  0  0  0  0
 23 41  1  0  0  0  0
 24 42  1  0  0  0  0
 25 44  1  0  0  0  0
 25 45  1  0  0  0  0
 25 46  1  0  0  0  0
M  END
> <PUBCHEM_COMPOUND_CID>
90354131

> <PUBCHEM_CONFORMER_RMSD>
0.8

> <PUBCHEM_CONFORMER_DIVERSEORDER>
1
74
140
26
63
53
51
44
78
83
117
4
57
121
18
89
82
104
90
73
38
43
75
133
41
46
7
28
142
65
54
80
77
110
68
85
50
148
72
35
81
105
45
108
5
32
58
111
9
55
61
47
71
91
93
62
25
101
67
8
37
103
107
97
84
88
24
134
116
123
145
10
94
64
92
144
147
56
122
21
15
87
98
13
60
112
139
76
33
100
109
135
127
49
19
143
40
124
22
59
52
128
66
146
31
129
130
141
115
126
42
39
113
6
27
30
118
3
69
23
102
137
20
131
14
79
86
138
16
29
106
17
34
119
96
48
132
2
12
95
114
70
125
36
120
136
11
99

> <PUBCHEM_MMFF94_PARTIAL_CHARGES>
36
1 -0.36
10 0.54
11 0.05
12 0.3
13 -0.15
14 0.08
15 -0.15
16 -0.15
17 -0.05
18 -0.15
19 -0.15
2 -0.57
20 -0.15
21 -0.15
22 -0.3
23 0.14
24 -0.15
25 0.28
3 -0.66
33 0.15
34 0.15
35 0.15
36 0.15
37 0.15
38 0.15
39 0.15
4 0.3
40 0.15
41 0.15
42 0.15
43 0.27
5 -0.71
6 0.3
7 0.14
8 -0.14
9 0.09

> <PUBCHEM_EFFECTIVE_ROTOR_COUNT>
7

> <PUBCHEM_PHARMACOPHORE_FEATURES>
7
1 1 acceptor
1 2 acceptor
1 4 donor
1 5 acceptor
5 4 5 17 22 23 rings
6 8 18 19 20 21 24 rings
6 9 11 13 14 15 16 rings

> <PUBCHEM_HEAVY_ATOM_COUNT>
25

> <PUBCHEM_ATOM_DEF_STEREO_COUNT>
0

> <PUBCHEM_ATOM_UDEF_STEREO_COUNT>
0

> <PUBCHEM_BOND_DEF_STEREO_COUNT>
0

> <PUBCHEM_BOND_UDEF_STEREO_COUNT>
0

> <PUBCHEM_ISOTOPIC_ATOM_COUNT>
0

> <PUBCHEM_COMPONENT_COUNT>
1

> <PUBCHEM_CACTVS_TAUTO_COUNT>
4

> <PUBCHEM_CONFORMER_ID>
0562B1D300000001

> <PUBCHEM_MMFF94_ENERGY>
77.4043

> <PUBCHEM_FEATURE_SELFOVERLAP>
35.522

> <PUBCHEM_SHAPE_FINGERPRINT>
10673678 19 18272090466486645477
11370993 70 18266737063939076364
12107183 9 18191004881457659824
12173636 292 17906445881129262670
12293681 4 16750981824539655887
12769317 202 18411972563989851252
12788726 201 17764573713748879630
13134695 92 18048312241287866694
13583140 156 18190188897400372699
13590594 115 17978786814386872614
138480 1 18194117413485047446
14468879 13 18115027523359327209
14713325 29 18045781458021237267
151778 21 18336261327278193748
167882 2 18410292497421850356
18785283 64 18335700516144340243
19930381 70 18409443687625852733
21475661 188 18115015317157295317
22907989 373 17327168253107989078
23227448 37 18410289255080303207
23559900 14 18264768757926901563
3298306 158 18410014376799053140
469060 322 16174264444014549040
474 4 18411980252018059147
5048184 11 18267584800320557740
5081480 168 17770257978880050468
6034566 193 18047769361743090453
9981440 41 18123180462446179450

> <PUBCHEM_SHAPE_MULTIPOLES>
487.81
9.11
5.06
1.34
4.06
1.73
0.53
-8.74
-1.64
-5.88
-0.74
1.13
-0.21
-0.01

> <PUBCHEM_SHAPE_SELFOVERLAP>
1050.962

> <PUBCHEM_SHAPE_VOLUME>
270.5

> <PUBCHEM_COORDINATE_TYPE>
2
5
10

$$$$
118662886
  -OEChem-05102415143D

 48 50  0     0  0  0  0  0  0999 V2000
   -2.6359   -1.8466    0.6167 O   0  0  0  0  0  0  0  0  0  0  0  0
    0.7125    2.9273   -0.3491 O   0  0  0  0  0  0  0  0  0  0  0  0
    1.2672    1.2899    1.1963 N   0  0  0  0  0  0  0  0  0  0  0  0
    5.2819   -2.1737    0.0248 N   0  0  0  0  0  0  0  0  0  0  0  0
   -6.7793   -0.8060   -0.9846 N   0  0  0  0  0  0  0  0  0  0  0  0
   -6.8698   -1.2074    0.2949 N   0  0  0  0  0  0  0  0  0  0  0  0
    3.6006    1.0937    0.5006 C   0  0  0  0  0  0  0  0  0  0  0  0
    2.6200    1.7380    1.4373 C   0  0  0  0  0  0  0  0  0  0  0  0
    4.8949   -0.8321   -0.1729 C   0  0  0  0  0  0  0  0  0  0  0  0
    3.9836   -0.2331    0.6968 C   0  0  0  0  0  0  0  0  0  0  0  0
   -3.5174    0.2966   -0.0217 C   0  0  0  0  0  0  0  0  0  0  0  0
   -0.9488    1.3642    0.1935 C   0  0  0  0  0  0  0  0  0  0  0  0
   -2.4510   -0.5216    0.3520 C   0  0  0  0  0  0  0  0  0  0  0  0
    4.1290    1.8217   -0.5655 C   0  0  0  0  0  0  0  0  0  0  0  0
    0.3895    1.9215    0.3074 C   0  0  0  0  0  0  0  0  0  0  0  0
   -1.1668    0.0123    0.4596 C   0  0  0  0  0  0  0  0  0  0  0  0
    5.4233   -0.1040   -1.2391 C   0  0  0  0  0  0  0  0  0  0  0  0
   -3.2993    1.6483   -0.2881 C   0  0  0  0  0  0  0  0  0  0  0  0
   -2.0152    2.1822   -0.1803 C   0  0  0  0  0  0  0  0  0  0  0  0
   -4.8495   -0.2329   -0.1370 C   0  0  0  0  0  0  0  0  0  0  0  0
    5.0405    1.2230   -1.4353 C   0  0  0  0  0  0  0  0  0  0  0  0
    6.2278   -2.8048   -0.8741 C   0  0  0  0  0  0  0  0  0  0  0  0
    4.7449   -2.9369    1.1339 C   0  0  0  0  0  0  0  0  0  0  0  0
   -5.5891   -0.2162   -1.2943 C   0  0  0  0  0  0  0  0  0  0  0  0
   -5.6879   -0.8546    0.8076 C   0  0  0  0  0  0  0  0  0  0  0  0
   -2.5057   -2.7489   -0.4795 C   0  0  0  0  0  0  0  0  0  0  0  0
    2.8735    1.4900    2.4744 H   0  0  0  0  0  0  0  0  0  0  0  0
    2.6573    2.8303    1.3525 H   0  0  0  0  0  0  0  0  0  0  0  0
    3.5505   -0.7674    1.5374 H   0  0  0  0  0  0  0  0  0  0  0  0
    0.9506    0.5039    1.7536 H   0  0  0  0  0  0  0  0  0  0  0  0
    3.8384    2.8557   -0.7312 H   0  0  0  0  0  0  0  0  0  0  0  0
   -0.3553   -0.6606    0.7230 H   0  0  0  0  0  0  0  0  0  0  0  0
   -4.1170    2.3054   -0.5754 H   0  0  0  0  0  0  0  0  0  0  0  0
   -1.8675    3.2392   -0.3863 H   0  0  0  0  0  0  0  0  0  0  0  0
    6.1348   -0.5240   -1.9431 H   0  0  0  0  0  0  0  0  0  0  0  0
    5.4513    1.7903   -2.2654 H   0  0  0  0  0  0  0  0  0  0  0  0
    7.1948   -2.2899   -0.8563 H   0  0  0  0  0  0  0  0  0  0  0  0
    5.8433   -2.8298   -1.8998 H   0  0  0  0  0  0  0  0  0  0  0  0
    6.4238   -3.8450   -0.5904 H   0  0  0  0  0  0  0  0  0  0  0  0
    5.0116   -2.4815    2.0941 H   0  0  0  0  0  0  0  0  0  0  0  0
    3.6555   -3.0292    1.0604 H   0  0  0  0  0  0  0  0  0  0  0  0
    5.1425   -3.9578    1.1529 H   0  0  0  0  0  0  0  0  0  0  0  0
   -5.3864    0.1503   -2.2912 H   0  0  0  0  0  0  0  0  0  0  0  0
   -5.4911   -1.0666    1.8492 H   0  0  0  0  0  0  0  0  0  0  0  0
   -7.5707   -0.9670   -1.5950 H   0  0  0  0  0  0  0  0  0  0  0  0
   -2.7309   -3.7571   -0.1210 H   0  0  0  0  0  0  0  0  0  0  0  0
   -1.4807   -2.7360   -0.8633 H   0  0  0  0  0  0  0  0  0  0  0  0
   -3.2078   -2.4993   -1.2809 H   0  0  0  0  0  0  0  0  0  0  0  0
  1 13  1  0  0  0  0
  1 26  1  0  0  0  0
  2 15  2  0  0  0  0
  3  8  1  0  0  0  0
  3 15  1  0  0  0  0
  3 30  1  0  0  0  0
  4  9  1  0  0  0  0
  4 22  1  0  0  0  0
  4 23  1  0  0  0  0
  5  6  1  0  0  0  0
  5 24  1  0  0  0  0
  5 45  1  0  0  0  0
  6 25  2  0  0  0  0
  7  8  1  0  0  0  0
  7 10  2  0  0  0  0
  7 14  1  0  0  0  0
  8 27  1  0  0  0  0
  8 28  1  0  0  0  0
  9 10  1  0  0  0  0
  9 17  2  0  0  0  0
 10 29  1  0  0  0  0
 11 13  2  0  0  0  0
 11 18  1  0  0  0  0
 11 20  1  0  0  0  0
 12 15  1  0  0  0  0
 12 16  2  0  0  0  0
 12 19  1  0  0  0  0
 13 16  1  0  0  0  0
 14 21  2  0  0  0  0
 14 31  1  0  0  0  0
 16 32  1  0  0  0  0
 17 21  1  0  0  0  0
 17 35  1  0  0  0  0
 18 19  2  0  0  0  0
 18 33  1  0  0  0  0
 19 34  1  0  0  0  0
 20 24  2  0  0  0  0
 20 25  1  0  0  0  0
 21 36  1  0  0  0  0
 22 37  1  0  0  0  0
 22 38  1  0  0  0  0
 22 39  1  0  0  0  0
 23 40  1  0  0  0  0
 23 41  1  0  0  0  0
 23 42  1  0  0  0  0
 24 43  1  0  0  0  0
 25 44  1  0  0  0  0
 26 46  1  0  0  0  0
 26 47  1  0  0  0  0
 26 48  1  0  0  0  0
M  END
> <PUBCHEM_COMPOUND_CID>
118662886

> <PUBCHEM_CONFORMER_RMSD>
0.8

> <PUBCHEM_CONFORMER_DIVERSEORDER>
3
86
57
63
31
2
39
45
69
36
10
87
56
49
16
100
41
52
90
84
83
33
27
37
76
77
99
79
40
35
19
102
1
18
94
30
75
34
103
88
93
85
32
51
60
46
82
68
70
92
22
23
105
80
98
29
42
38
72
26
43
58
95
50
5
59
74
54
12
47
78
53
96
64
14
71
4
67
101
24
66
91
28
15
9
62
21
61
7
89
73
8
11
48
55
25
20
65
104
6
97
17
44
81
13

> <PUBCHEM_MMFF94_PARTIAL_CHARGES>
37
1 -0.36
10 -0.15
11 0.05
12 0.09
13 0.08
14 -0.15
15 0.54
16 -0.15
17 -0.15
18 -0.15
19 -0.15
2 -0.57
20 -0.05
21 -0.15
22 0.37
23 0.37
24 -0.3
25 0.14
26 0.28
29 0.15
3 -0.73
30 0.37
31 0.15
32 0.15
33 0.15
34 0.15
35 0.15
36 0.15
4 -0.84
43 0.15
44 0.15
45 0.27
5 0.3
6 -0.71
7 -0.14
8 0.44
9 0.1

> <PUBCHEM_EFFECTIVE_ROTOR_COUNT>
7

> <PUBCHEM_PHARMACOPHORE_FEATURES>
9
1 1 acceptor
1 2 acceptor
1 3 donor
1 4 cation
1 5 donor
1 6 acceptor
5 5 6 20 24 25 rings
6 11 12 13 16 18 19 rings
6 7 9 10 14 17 21 rings

> <PUBCHEM_HEAVY_ATOM_COUNT>
26

> <PUBCHEM_ATOM_DEF_STEREO_COUNT>
0

> <PUBCHEM_ATOM_UDEF_STEREO_COUNT>
0

> <PUBCHEM_BOND_DEF_STEREO_COUNT>
0

> <PUBCHEM_BOND_UDEF_STEREO_COUNT>
0

> <PUBCHEM_ISOTOPIC_ATOM_COUNT>
0

> <PUBCHEM_COMPONENT_COUNT>
1

> <PUBCHEM_CACTVS_TAUTO_COUNT>
9

> <PUBCHEM_CONFORMER_ID>
0712A6E600000003

> <PUBCHEM_MMFF94_ENERGY>
89.4634

> <PUBCHEM_FEATURE_SELFOVERLAP>
45.671

> <PUBCHEM_SHAPE_FINGERPRINT>
10622 236 17754728335279950898
117089 54 17914348870632738542
12166972 35 18041003929289508780
12760667 363 18272371949235171667
13073987 5 18131911546648632152
13533116 47 18201717392090384496
13551218 46 18343017805087947167
13782708 43 18060414733789587677
13955234 65 18058161920322384704
14216079 64 18342174471337912863
14347332 77 18412540981684696641
14617045 38 18411423942010152850
14866123 147 18055357933553203329
14910302 57 18335973221014285876
14931854 50 18042413443832224426
15183329 4 18272373092034173227
15348495 7 12175616300072071853
15510800 12 17845663534638708022
17134984 74 18186241719581712738
17349148 13 17846786238667745449
19958102 18 18259976068313363741
20403669 9 18273218586353126830
21279426 13 18335410232675145261
21304303 94 17967533480638714954
21641784 216 15792002347154267029
21682296 61 18413109455408873531
221357 26 18409166606342345288
2215653 11 18411978104908898957
23522609 53 18055667042318185633
23559900 14 18195805387114688361
23569943 247 18272370824566631195
24771750 20 17174353681705166525
270888 7 7925613506979348670
2748736 6 7997972362470567647
3004659 81 18260547797586210650
3383291 50 18412257324727982723
3472631 163 8430312441893289464
34797466 226 16878229748357544397
397830 11 11383821719134362597
4073 2 18126000713749861400
4340502 62 13254528586603585853
439807 62 18336267855475112870
46194498 28 17530964730624185420
465052 167 18131354103006333588
5081480 168 16226880211509605277
5104073 3 17632293445765033936
54039377 194 18270124509715982686
7808743 9 8285326424177113924
86090 222 16343161151196331846
960060 61 18334016116376623164

> <PUBCHEM_SHAPE_MULTIPOLES>
503.41
17.77
3.17
1.18
5.32
1.04
-0.06
11.21
-4.26
-3.34
0.08
-0.77
0
-0.15

> <PUBCHEM_SHAPE_SELFOVERLAP>
1085.609

> <PUBCHEM_SHAPE_VOLUME>
278.9

> <PUBCHEM_COORDINATE_TYPE>
2
5
10

$$$$
118662900
  -OEChem-05102415143D

 47 49  0     1  0  0  0  0  0999 V2000
   -3.5906    4.3466   -1.2385 O   0  0  0  0  0  0  0  0  0  0  0  0
    3.7700    0.2165    2.0215 O   0  0  0  0  0  0  0  0  0  0  0  0
   -1.2900   -0.0401    2.0607 O   0  0  0  0  0  0  0  0  0  0  0  0
   -1.8377    0.6457   -0.0854 N   0  0  0  0  0  0  0  0  0  0  0  0
    6.3881    0.0399   -1.7108 N   0  0  0  0  0  0  0  0  0  0  0  0
    6.6610   -1.0040   -0.9094 N   0  0  0  0  0  0  0  0  0  0  0  0
   -3.2495    0.8483    0.1594 C   0  0  1  0  0  0  0  0  0  0  0  0
   -3.7731    2.0238   -0.6811 C   0  0  0  0  0  0  0  0  0  0  0  0
   -4.0110   -0.4418   -0.0615 C   0  0  0  0  0  0  0  0  0  0  0  0
   -3.0178    3.3252   -0.4323 C   0  0  0  0  0  0  0  0  0  0  0  0
   -0.9691    0.2127    0.9024 C   0  0  0  0  0  0  0  0  0  0  0  0
    0.4542    0.0797    0.4981 C   0  0  0  0  0  0  0  0  0  0  0  0
   -5.1230   -0.7390    0.7266 C   0  0  0  0  0  0  0  0  0  0  0  0
   -3.6006   -1.3331   -1.0530 C   0  0  0  0  0  0  0  0  0  0  0  0
    3.1267   -0.1738   -0.2614 C   0  0  0  0  0  0  0  0  0  0  0  0
    1.4652    0.2100    1.4502 C   0  0  0  0  0  0  0  0  0  0  0  0
    2.8014    0.0833    1.0705 C   0  0  0  0  0  0  0  0  0  0  0  0
    0.7794   -0.1774   -0.8339 C   0  0  0  0  0  0  0  0  0  0  0  0
   -5.8246   -1.9275    0.5232 C   0  0  0  0  0  0  0  0  0  0  0  0
   -4.3021   -2.5215   -1.2563 C   0  0  0  0  0  0  0  0  0  0  0  0
    2.1156   -0.3039   -1.2137 C   0  0  0  0  0  0  0  0  0  0  0  0
    4.4976   -0.3098   -0.6741 C   0  0  0  0  0  0  0  0  0  0  0  0
   -5.4142   -2.8186   -0.4684 C   0  0  0  0  0  0  0  0  0  0  0  0
    5.1058    0.4934   -1.6078 C   0  0  0  0  0  0  0  0  0  0  0  0
    5.5024   -1.2131   -0.2788 C   0  0  0  0  0  0  0  0  0  0  0  0
    3.3359    0.4784    3.3539 C   0  0  0  0  0  0  0  0  0  0  0  0
   -3.3520    1.1201    1.2188 H   0  0  0  0  0  0  0  0  0  0  0  0
   -3.7161    1.7821   -1.7514 H   0  0  0  0  0  0  0  0  0  0  0  0
   -4.8408    2.1829   -0.4800 H   0  0  0  0  0  0  0  0  0  0  0  0
   -1.4990    0.8533   -1.0187 H   0  0  0  0  0  0  0  0  0  0  0  0
   -3.0963    3.6251    0.6174 H   0  0  0  0  0  0  0  0  0  0  0  0
   -1.9609    3.2363   -0.7003 H   0  0  0  0  0  0  0  0  0  0  0  0
   -5.4540   -0.0520    1.5009 H   0  0  0  0  0  0  0  0  0  0  0  0
   -2.7495   -1.1227   -1.6945 H   0  0  0  0  0  0  0  0  0  0  0  0
    1.1551    0.4162    2.4686 H   0  0  0  0  0  0  0  0  0  0  0  0
    0.0249   -0.3219   -1.6012 H   0  0  0  0  0  0  0  0  0  0  0  0
    2.3464   -0.5164   -2.2551 H   0  0  0  0  0  0  0  0  0  0  0  0
   -6.6908   -2.1586    1.1362 H   0  0  0  0  0  0  0  0  0  0  0  0
   -3.9851   -3.2139   -2.0308 H   0  0  0  0  0  0  0  0  0  0  0  0
   -5.9611   -3.7433   -0.6276 H   0  0  0  0  0  0  0  0  0  0  0  0
   -3.0966    5.1642   -1.0565 H   0  0  0  0  0  0  0  0  0  0  0  0
    4.7568    1.3299   -2.1973 H   0  0  0  0  0  0  0  0  0  0  0  0
    5.4425   -2.0168    0.4417 H   0  0  0  0  0  0  0  0  0  0  0  0
    7.1270    0.3947   -2.3050 H   0  0  0  0  0  0  0  0  0  0  0  0
    2.7424   -0.3492    3.7575 H   0  0  0  0  0  0  0  0  0  0  0  0
    2.8216    1.4425    3.4309 H   0  0  0  0  0  0  0  0  0  0  0  0
    4.2351    0.5518    3.9748 H   0  0  0  0  0  0  0  0  0  0  0  0
  1 10  1  0  0  0  0
  1 41  1  0  0  0  0
  2 17  1  0  0  0  0
  2 26  1  0  0  0  0
  3 11  2  0  0  0  0
  4  7  1  0  0  0  0
  4 11  1  0  0  0  0
  4 30  1  0  0  0  0
  5  6  1  0  0  0  0
  5 24  1  0  0  0  0
  5 44  1  0  0  0  0
  6 25  2  0  0  0  0
  7  8  1  0  0  0  0
  7  9  1  0  0  0  0
  7 27  1  0  0  0  0
  8 10  1  0  0  0  0
  8 28  1  0  0  0  0
  8 29  1  0  0  0  0
  9 13  2  0  0  0  0
  9 14  1  0  0  0  0
 10 31  1  0  0  0  0
 10 32  1  0  0  0  0
 11 12  1  0  0  0  0
 12 16  2  0  0  0  0
 12 18  1  0  0  0  0
 13 19  1  0  0  0  0
 13 33  1  0  0  0  0
 14 20  2  0  0  0  0
 14 34  1  0  0  0  0
 15 17  2  0  0  0  0
 15 21  1  0  0  0  0
 15 22  1  0  0  0  0
 16 17  1  0  0  0  0
 16 35  1  0  0  0  0
 18 21  2  0  0  0  0
 18 36  1  0  0  0  0
 19 23  2  0  0  0  0
 19 38  1  0  0  0  0
 20 23  1  0  0  0  0
 20 39  1  0  0  0  0
 21 37  1  0  0  0  0
 22 24  2  0  0  0  0
 22 25  1  0  0  0  0
 23 40  1  0  0  0  0
 24 42  1  0  0  0  0
 25 43  1  0  0  0  0
 26 45  1  0  0  0  0
 26 46  1  0  0  0  0
 26 47  1  0  0  0  0
M  END
> <PUBCHEM_COMPOUND_CID>
118662900

> <PUBCHEM_CONFORMER_RMSD>
0.8

> <PUBCHEM_CONFORMER_DIVERSEORDER>
2
59
101
98
116
12
5
122
131
112
51
89
77
135
86
119
99
94
10
85
52
15
79
93
127
32
102
115
109
106
53
70
35
91
68
29
30
44
125
73
136
118
74
40
92
42
61
123
132
14
103
65
108
71
56
80
41
47
117
83
9
4
72
128
87
113
66
100
88
55
64
19
18
13
137
130
76
110
126
129
33
16
45
37
48
120
96
28
62
38
69
25
134
97
58
124
7
26
133
39
36
90
111
17
22
46
78
114
43
95
67
105
34
11
27
54
20
104
84
6
8
82
57
107
3
75
63
49
60
23
1
121
81
31
50
24
21

> <PUBCHEM_MMFF94_PARTIAL_CHARGES>
38
1 -0.68
10 0.28
11 0.54
12 0.09
13 -0.15
14 -0.15
15 0.05
16 -0.15
17 0.08
18 -0.15
19 -0.15
2 -0.36
20 -0.15
21 -0.15
22 -0.05
23 -0.15
24 -0.3
25 0.14
26 0.28
3 -0.57
30 0.37
33 0.15
34 0.15
35 0.15
36 0.15
37 0.15
38 0.15
39 0.15
4 -0.73
40 0.15
41 0.4
42 0.15
43 0.15
44 0.27
5 0.3
6 -0.71
7 0.44
9 -0.14

> <PUBCHEM_EFFECTIVE_ROTOR_COUNT>
8

> <PUBCHEM_PHARMACOPHORE_FEATURES>
10
1 1 acceptor
1 1 donor
1 2 acceptor
1 3 acceptor
1 4 donor
1 5 donor
1 6 acceptor
5 5 6 22 24 25 rings
6 12 15 16 17 18 21 rings
6 9 13 14 19 20 23 rings

> <PUBCHEM_HEAVY_ATOM_COUNT>
26

> <PUBCHEM_ATOM_DEF_STEREO_COUNT>
0

> <PUBCHEM_ATOM_UDEF_STEREO_COUNT>
1

> <PUBCHEM_BOND_DEF_STEREO_COUNT>
0

> <PUBCHEM_BOND_UDEF_STEREO_COUNT>
0

> <PUBCHEM_ISOTOPIC_ATOM_COUNT>
0

> <PUBCHEM_COMPONENT_COUNT>
1

> <PUBCHEM_CACTVS_TAUTO_COUNT>
9

> <PUBCHEM_CONFORMER_ID>
0712A6F400000002

> <PUBCHEM_MMFF94_ENERGY>
73.547

> <PUBCHEM_FEATURE_SELFOVERLAP>
50.748

> <PUBCHEM_SHAPE_FINGERPRINT>
10595046 47 18259991465945206166
11056379 131 18408602548561596661
11089746 13 17530687606812990988
11101153 10 18115881847999666508
11524674 6 16415484857055430175
11545043 162 18202279186897705632
11796584 16 18197777692232097790
12166972 35 18341341075694367204
12236239 1 17603587425950693271
12403259 415 17988920072208843824
12422481 6 13542198168421602256
12633257 1 11600007660795715643
12788726 201 18113898277999768315
13583140 156 17916853634632715543
13673619 4 18060143184561555955
13690498 29 18410575097949031245
13782708 43 17917710231579798886
14294032 229 18189898613799373685
14347332 77 18410011039693496383
15183329 4 16877946014876927898
15348495 7 16701738366707849483
15876981 60 18187092732432638237
16992828 155 17170109244941991221
17349148 13 17603859009997562251
17844677 252 18342741823195410944
1813 80 18267579294831444881
20505436 4 17679307365036837041
20645477 70 14924210604508884386
21033650 10 18189069602583122752
21065201 7 18341883078574873299
21150785 3 18261964041577301854
21267235 1 16271661018460169798
22182313 1 17702927206414663312
22393880 68 18272364239911566226
2303208 19 17989487437367526866
23081809 10 17749115457278962350
23402539 116 17968100806535855037
23522609 53 17841467922019553073
23557571 272 18343022155900757453
23559900 14 17775279482532436170
25223398 141 18272088283893874572
268830 7 16515963649227777032
3178227 256 16774086185098196030
46194498 28 18202288039321675156
465052 167 17060066956201174286
5104073 3 16558754516046477218
5219985 13 17612016089644865301
531348 171 18264492784391411510
6700243 42 17842594848439417556
7495541 125 17632299003731769146
8863177 126 17560518529173397926

> <PUBCHEM_SHAPE_MULTIPOLES>
502.52
15.84
2.78
2.03
8.69
2.58
1.52
-7.56
-4.36
-6.96
-1.59
2.69
0.55
1.45

> <PUBCHEM_SHAPE_SELFOVERLAP>
1082.416

> <PUBCHEM_SHAPE_VOLUME>
277.1

> <PUBCHEM_COORDINATE_TYPE>
2
5
10

$$$$
118668486
  -OEChem-05102415143D

 65 68  0     1  0  0  0  0  0999 V2000
   -5.2782   -1.1020    0.0347 O   0  0  0  0  0  0  0  0  0  0  0  0
    2.7662    1.6497   -1.0028 O   0  0  0  0  0  0  0  0  0  0  0  0
    1.9156   -3.9077    0.7967 O   0  0  0  0  0  0  0  0  0  0  0  0
   -4.4527    3.5031   -0.1309 N   0  0  2  0  0  0  0  0  0  0  0  0
   -3.3708   -0.0370   -0.7473 N   0  0  0  0  0  0  0  0  0  0  0  0
    0.8351   -3.0107   -1.0492 N   0  0  0  0  0  0  0  0  0  0  0  0
    6.7361    2.9598    0.8228 N   0  0  0  0  0  0  0  0  0  0  0  0
    6.7561    3.1562   -0.5065 N   0  0  0  0  0  0  0  0  0  0  0  0
   -3.9340    2.1581    0.1545 C   0  0  2  0  0  0  0  0  0  0  0  0
   -2.4957    2.4395    0.5941 C   0  0  0  0  0  0  0  0  0  0  0  0
   -2.5086    3.8699    1.1219 C   0  0  0  0  0  0  0  0  0  0  0  0
   -3.9435    4.3427    0.9563 C   0  0  0  0  0  0  0  0  0  0  0  0
   -3.9852    1.2224   -1.0465 C   0  0  0  0  0  0  0  0  0  0  0  0
   -5.9075    3.5562   -0.2102 C   0  0  0  0  0  0  0  0  0  0  0  0
   -6.3982    4.9672   -0.4602 C   0  0  0  0  0  0  0  0  0  0  0  0
   -4.0773   -1.1161   -0.2222 C   0  0  0  0  0  0  0  0  0  0  0  0
   -3.2896   -2.3443    0.0574 C   0  0  0  0  0  0  0  0  0  0  0  0
   -2.1307   -2.6108   -0.6716 C   0  0  0  0  0  0  0  0  0  0  0  0
   -3.7095   -3.2314    1.0486 C   0  0  0  0  0  0  0  0  0  0  0  0
   -1.3914   -3.7643   -0.4094 C   0  0  0  0  0  0  0  0  0  0  0  0
   -2.9705   -4.3850    1.3107 C   0  0  0  0  0  0  0  0  0  0  0  0
   -0.1529   -4.0502   -1.1894 C   0  0  0  0  0  0  0  0  0  0  0  0
   -1.8113   -4.6514    0.5818 C   0  0  0  0  0  0  0  0  0  0  0  0
    1.8010   -3.0276   -0.0523 C   0  0  0  0  0  0  0  0  0  0  0  0
    2.7303   -1.8688   -0.0266 C   0  0  0  0  0  0  0  0  0  0  0  0
    4.4749    0.3076    0.0252 C   0  0  0  0  0  0  0  0  0  0  0  0
    3.1924    0.4542   -0.5035 C   0  0  0  0  0  0  0  0  0  0  0  0
    2.3201   -0.6341   -0.5294 C   0  0  0  0  0  0  0  0  0  0  0  0
    4.0129   -2.0155    0.5021 C   0  0  0  0  0  0  0  0  0  0  0  0
    4.8852   -0.9273    0.5278 C   0  0  0  0  0  0  0  0  0  0  0  0
    5.3896    1.4168    0.0634 C   0  0  0  0  0  0  0  0  0  0  0  0
    5.9329    1.9298    1.2158 C   0  0  0  0  0  0  0  0  0  0  0  0
    5.9315    2.2107   -0.9651 C   0  0  0  0  0  0  0  0  0  0  0  0
    2.1278    2.5403   -0.0908 C   0  0  0  0  0  0  0  0  0  0  0  0
   -4.4726    1.7105    1.0026 H   0  0  0  0  0  0  0  0  0  0  0  0
   -1.7835    2.3681   -0.2372 H   0  0  0  0  0  0  0  0  0  0  0  0
   -2.1723    1.7362    1.3695 H   0  0  0  0  0  0  0  0  0  0  0  0
   -2.1865    3.9198    2.1670 H   0  0  0  0  0  0  0  0  0  0  0  0
   -1.8241    4.4887    0.5296 H   0  0  0  0  0  0  0  0  0  0  0  0
   -4.4951    4.1795    1.8913 H   0  0  0  0  0  0  0  0  0  0  0  0
   -3.9654    5.4103    0.7158 H   0  0  0  0  0  0  0  0  0  0  0  0
   -3.4496    1.6485   -1.9027 H   0  0  0  0  0  0  0  0  0  0  0  0
   -5.0191    1.0426   -1.3593 H   0  0  0  0  0  0  0  0  0  0  0  0
   -6.2526    2.9340   -1.0435 H   0  0  0  0  0  0  0  0  0  0  0  0
   -6.3775    3.1634    0.7002 H   0  0  0  0  0  0  0  0  0  0  0  0
   -2.3662   -0.0943   -0.8746 H   0  0  0  0  0  0  0  0  0  0  0  0
   -6.2474    5.6200    0.4053 H   0  0  0  0  0  0  0  0  0  0  0  0
   -5.9026    5.4171   -1.3274 H   0  0  0  0  0  0  0  0  0  0  0  0
   -7.4740    4.9540   -0.6669 H   0  0  0  0  0  0  0  0  0  0  0  0
   -1.8007   -1.9558   -1.4734 H   0  0  0  0  0  0  0  0  0  0  0  0
   -4.6071   -3.0393    1.6305 H   0  0  0  0  0  0  0  0  0  0  0  0
   -3.2967   -5.0752    2.0833 H   0  0  0  0  0  0  0  0  0  0  0  0
    0.2951   -5.0050   -0.8906 H   0  0  0  0  0  0  0  0  0  0  0  0
   -0.4001   -4.1310   -2.2542 H   0  0  0  0  0  0  0  0  0  0  0  0
   -1.2457   -5.5537    0.7984 H   0  0  0  0  0  0  0  0  0  0  0  0
    0.8248   -2.2749   -1.7474 H   0  0  0  0  0  0  0  0  0  0  0  0
    1.3185   -0.4773   -0.9203 H   0  0  0  0  0  0  0  0  0  0  0  0
    4.3521   -2.9709    0.8938 H   0  0  0  0  0  0  0  0  0  0  0  0
    5.8823   -1.0653    0.9398 H   0  0  0  0  0  0  0  0  0  0  0  0
    5.8260    1.6674    2.2594 H   0  0  0  0  0  0  0  0  0  0  0  0
    5.7630    2.1427   -2.0307 H   0  0  0  0  0  0  0  0  0  0  0  0
    7.2967    3.5682    1.4062 H   0  0  0  0  0  0  0  0  0  0  0  0
    1.8972    3.4673   -0.6229 H   0  0  0  0  0  0  0  0  0  0  0  0
    2.7823    2.7766    0.7536 H   0  0  0  0  0  0  0  0  0  0  0  0
    1.1911    2.1054    0.2728 H   0  0  0  0  0  0  0  0  0  0  0  0
  1 16  2  0  0  0  0
  2 27  1  0  0  0  0
  2 34  1  0  0  0  0
  3 24  2  0  0  0  0
  4  9  1  0  0  0  0
  4 12  1  0  0  0  0
  4 14  1  0  0  0  0
  5 13  1  0  0  0  0
  5 16  1  0  0  0  0
  5 46  1  0  0  0  0
  6 22  1  0  0  0  0
  6 24  1  0  0  0  0
  6 56  1  0  0  0  0
  7  8  1  0  0  0  0
  7 32  1  0  0  0  0
  7 62  1  0  0  0  0
  8 33  2  0  0  0  0
  9 10  1  0  0  0  0
  9 13  1  0  0  0  0
  9 35  1  0  0  0  0
 10 11  1  0  0  0  0
 10 36  1  0  0  0  0
 10 37  1  0  0  0  0
 11 12  1  0  0  0  0
 11 38  1  0  0  0  0
 11 39  1  0  0  0  0
 12 40  1  0  0  0  0
 12 41  1  0  0  0  0
 13 42  1  0  0  0  0
 13 43  1  0  0  0  0
 14 15  1  0  0  0  0
 14 44  1  0  0  0  0
 14 45  1  0  0  0  0
 15 47  1  0  0  0  0
 15 48  1  0  0  0  0
 15 49  1  0  0  0  0
 16 17  1  0  0  0  0
 17 18  1  0  0  0  0
 17 19  2  0  0  0  0
 18 20  2  0  0  0  0
 18 50  1  0  0  0  0
 19 21  1  0  0  0  0
 19 51  1  0  0  0  0
 20 22  1  0  0  0  0
 20 23  1  0  0  0  0
 21 23  2  0  0  0  0
 21 52  1  0  0  0  0
 22 53  1  0  0  0  0
 22 54  1  0  0  0  0
 23 55  1  0  0  0  0
 24 25  1  0  0  0  0
 25 28  2  0  0  0  0
 25 29  1  0  0  0  0
 26 27  2  0  0  0  0
 26 30  1  0  0  0  0
 26 31  1  0  0  0  0
 27 28  1  0  0  0  0
 28 57  1  0  0  0  0
 29 30  2  0  0  0  0
 29 58  1  0  0  0  0
 30 59  1  0  0  0  0
 31 32  2  0  0  0  0
 31 33  1  0  0  0  0
 32 60  1  0  0  0  0
 33 61  1  0  0  0  0
 34 63  1  0  0  0  0
 34 64  1  0  0  0  0
 34 65  1  0  0  0  0
M  END
> <PUBCHEM_COMPOUND_CID>
118668486

> <PUBCHEM_CONFORMER_RMSD>
1.4

> <PUBCHEM_CONFORMER_DIVERSEORDER>
1
122
59
63
37
55
94
48
23
104
34
22
125
43
62
100
44
101
28
118
77
24
82
16
84
116
35
36
109
91
85
75
86
93
69
20
110
117
32
21
7
31
105
70
46
92
45
123
3
66
98
17
97
88
96
38
124
81
5
56
129
14
19
112
53
128
42
61
27
131
89
113
8
64
29
115
130
4
68
121
47
51
103
138
87
18
114
107
120
41
52
13
139
11
67
78
127
65
119
6
71
25
33
54
83
60
136
15
108
40
76
132
2
73
72
9
126
12
30
58
74
133
90
111
135
50
80
137
49
57
79
99
106
134
10
102
39
95
26

> <PUBCHEM_MMFF94_PARTIAL_CHARGES>
43
1 -0.57
12 0.27
13 0.3
14 0.27
16 0.54
17 0.09
18 -0.15
19 -0.15
2 -0.36
20 -0.14
21 -0.15
22 0.44
23 -0.15
24 0.54
25 0.09
26 0.05
27 0.08
28 -0.15
29 -0.15
3 -0.57
30 -0.15
31 -0.05
32 -0.3
33 0.14
34 0.28
4 -0.81
46 0.37
5 -0.73
50 0.15
51 0.15
52 0.15
55 0.15
56 0.37
57 0.15
58 0.15
59 0.15
6 -0.73
60 0.15
61 0.15
62 0.27
7 0.3
8 -0.71
9 0.27

> <PUBCHEM_EFFECTIVE_ROTOR_COUNT>
12

> <PUBCHEM_PHARMACOPHORE_FEATURES>
12
1 1 acceptor
1 2 acceptor
1 3 acceptor
1 4 cation
1 5 donor
1 6 donor
1 7 donor
1 8 acceptor
5 4 9 10 11 12 rings
5 7 8 31 32 33 rings
6 17 18 19 20 21 23 rings
6 25 26 27 28 29 30 rings

> <PUBCHEM_HEAVY_ATOM_COUNT>
34

> <PUBCHEM_ATOM_DEF_STEREO_COUNT>
0

> <PUBCHEM_ATOM_UDEF_STEREO_COUNT>
1

> <PUBCHEM_BOND_DEF_STEREO_COUNT>
0

> <PUBCHEM_BOND_UDEF_STEREO_COUNT>
0

> <PUBCHEM_ISOTOPIC_ATOM_COUNT>
0

> <PUBCHEM_COMPONENT_COUNT>
1

> <PUBCHEM_CACTVS_TAUTO_COUNT>
18

> <PUBCHEM_CONFORMER_ID>
0712BCC600000001

> <PUBCHEM_MMFF94_ENERGY>
81.2584

> <PUBCHEM_FEATURE_SELFOVERLAP>
60.898

> <PUBCHEM_SHAPE_FINGERPRINT>
10439779 11 18337101350309978416
10675989 125 17980482256858600529
10951579 204 18266197187488980068
11135609 187 18336812106122623189
11408170 253 17831314053166649204
12107183 9 18189885432170163802
12925494 130 18264768771043405027
1361 2 17905893574342424545
14932702 115 18060134323753946096
15001296 14 18192711142297644321
15145344 40 18267866086793877657
15320467 1 18339080522352152229
15347590 135 17752208541685457643
15400415 2 18338798892741431317
155225 5 18340206400989932256
15781502 237 18410013282658169136
16112460 7 17979634528924440642
16708801 149 18268974428404090288
16728433 281 18268448957122329692
16993438 75 18336833090382745833
19053607 189 18269539572843395216
20580484 21 17185878294816373693
21792964 463 17751649977747667412
24771293 8 18127708209024045571
4144715 1 18334863852948918210
4487111 67 18411980299431504568
5047190 92 18339645521764609537
53794403 172 18052825745441494375
550186 7 18129671936162545070
5776283 40 18050588247895857182
6036956 94 18336266859575853429
6176135 31 18194111911242116584
6201320 215 18268706298645454176
653340 110 18339921627662714360
6608658 132 18057031630589564023
9849439 229 18337113354558402551
9961470 85 18266460906210752837

> <PUBCHEM_SHAPE_MULTIPOLES>
657.19
16.46
8.67
1.09
10.52
1.25
-0.07
-22.81
-0.62
-10.15
-1.26
0.01
0.15
0.51

> <PUBCHEM_SHAPE_SELFOVERLAP>
1409.381

> <PUBCHEM_SHAPE_VOLUME>
364.5

> <PUBCHEM_COORDINATE_TYPE>
2
5
10

$$$$
90354097
  -OEChem-05102415143D

 47 49  0     0  0  0  0  0  0999 V2000
   -2.7699    1.9500   -0.1373 O   0  0  0  0  0  0  0  0  0  0  0  0
   -0.2485   -3.3873   -0.1721 O   0  0  0  0  0  0  0  0  0  0  0  0
    6.2683    0.8828    1.7543 O   0  0  0  0  0  0  0  0  0  0  0  0
    0.7847   -1.5174    0.7296 N   0  0  0  0  0  0  0  0  0  0  0  0
   -7.2391    1.3322    0.5408 N   0  0  0  0  0  0  0  0  0  0  0  0
   -7.0298    1.8730   -0.6716 N   0  0  0  0  0  0  0  0  0  0  0  0
    6.3998    2.1979   -0.1510 N   0  0  0  0  0  0  0  0  0  0  0  0
    2.1084   -2.0891    0.8300 C   0  0  0  0  0  0  0  0  0  0  0  0
   -4.0023   -0.1052    0.0510 C   0  0  0  0  0  0  0  0  0  0  0  0
    3.1154   -1.3193    0.0254 C   0  0  0  0  0  0  0  0  0  0  0  0
   -1.5832   -1.4899    0.1690 C   0  0  0  0  0  0  0  0  0  0  0  0
   -2.7957    0.5918   -0.0157 C   0  0  0  0  0  0  0  0  0  0  0  0
   -1.5862   -0.1006    0.0434 C   0  0  0  0  0  0  0  0  0  0  0  0
   -3.9993   -1.4944    0.1768 C   0  0  0  0  0  0  0  0  0  0  0  0
   -5.2605    0.5887   -0.0099 C   0  0  0  0  0  0  0  0  0  0  0  0
   -0.3224   -2.2121    0.2286 C   0  0  0  0  0  0  0  0  0  0  0  0
   -2.7897   -2.1868    0.2356 C   0  0  0  0  0  0  0  0  0  0  0  0
    4.0242   -0.4771    0.6662 C   0  0  0  0  0  0  0  0  0  0  0  0
    4.9603    0.2371   -0.0815 C   0  0  0  0  0  0  0  0  0  0  0  0
    3.1429   -1.4473   -1.3634 C   0  0  0  0  0  0  0  0  0  0  0  0
    4.9879    0.1091   -1.4704 C   0  0  0  0  0  0  0  0  0  0  0  0
    4.0793   -0.7332   -2.1112 C   0  0  0  0  0  0  0  0  0  0  0  0
   -6.2094    0.5544    0.9827 C   0  0  0  0  0  0  0  0  0  0  0  0
   -5.8196    1.4151   -1.0030 C   0  0  0  0  0  0  0  0  0  0  0  0
    5.9082    1.1147    0.5866 C   0  0  0  0  0  0  0  0  0  0  0  0
   -1.4872    2.5692   -0.1972 C   0  0  0  0  0  0  0  0  0  0  0  0
    7.3635    3.1439    0.3642 C   0  0  0  0  0  0  0  0  0  0  0  0
    2.1030   -3.1376    0.5116 H   0  0  0  0  0  0  0  0  0  0  0  0
    2.3743   -2.0855    1.8932 H   0  0  0  0  0  0  0  0  0  0  0  0
   -0.6331    0.4039   -0.0498 H   0  0  0  0  0  0  0  0  0  0  0  0
    0.6690   -0.5861    1.1152 H   0  0  0  0  0  0  0  0  0  0  0  0
   -4.9281   -2.0582    0.2267 H   0  0  0  0  0  0  0  0  0  0  0  0
   -2.8084   -3.2689    0.3367 H   0  0  0  0  0  0  0  0  0  0  0  0
    3.9941   -0.3764    1.7487 H   0  0  0  0  0  0  0  0  0  0  0  0
    2.4411   -2.1020   -1.8734 H   0  0  0  0  0  0  0  0  0  0  0  0
    5.7191    0.6233   -2.0872 H   0  0  0  0  0  0  0  0  0  0  0  0
    4.1049   -0.8387   -3.1919 H   0  0  0  0  0  0  0  0  0  0  0  0
   -6.2503    0.0616    1.9443 H   0  0  0  0  0  0  0  0  0  0  0  0
   -5.3992    1.7047   -1.9559 H   0  0  0  0  0  0  0  0  0  0  0  0
   -8.1107    1.5368    1.0134 H   0  0  0  0  0  0  0  0  0  0  0  0
   -1.6571    3.6479   -0.2814 H   0  0  0  0  0  0  0  0  0  0  0  0
   -0.9332    2.2690   -1.0933 H   0  0  0  0  0  0  0  0  0  0  0  0
   -0.9162    2.4136    0.7248 H   0  0  0  0  0  0  0  0  0  0  0  0
    6.0235    2.3970   -1.0718 H   0  0  0  0  0  0  0  0  0  0  0  0
    6.8189    3.9727    0.8231 H   0  0  0  0  0  0  0  0  0  0  0  0
    8.0063    2.6695    1.1097 H   0  0  0  0  0  0  0  0  0  0  0  0
    7.9651    3.5144   -0.4689 H   0  0  0  0  0  0  0  0  0  0  0  0
  1 12  1  0  0  0  0
  1 26  1  0  0  0  0
  2 16  2  0  0  0  0
  3 25  2  0  0  0  0
  4  8  1  0  0  0  0
  4 16  1  0  0  0  0
  4 31  1  0  0  0  0
  5  6  1  0  0  0  0
  5 23  1  0  0  0  0
  5 40  1  0  0  0  0
  6 24  2  0  0  0  0
  7 25  1  0  0  0  0
  7 27  1  0  0  0  0
  7 44  1  0  0  0  0
  8 10  1  0  0  0  0
  8 28  1  0  0  0  0
  8 29  1  0  0  0  0
  9 12  2  0  0  0  0
  9 14  1  0  0  0  0
  9 15  1  0  0  0  0
 10 18  2  0  0  0  0
 10 20  1  0  0  0  0
 11 13  2  0  0  0  0
 11 16  1  0  0  0  0
 11 17  1  0  0  0  0
 12 13  1  0  0  0  0
 13 30  1  0  0  0  0
 14 17  2  0  0  0  0
 14 32  1  0  0  0  0
 15 23  2  0  0  0  0
 15 24  1  0  0  0  0
 17 33  1  0  0  0  0
 18 19  1  0  0  0  0
 18 34  1  0  0  0  0
 19 21  2  0  0  0  0
 19 25  1  0  0  0  0
 20 22  2  0  0  0  0
 20 35  1  0  0  0  0
 21 22  1  0  0  0  0
 21 36  1  0  0  0  0
 22 37  1  0  0  0  0
 23 38  1  0  0  0  0
 24 39  1  0  0  0  0
 26 41  1  0  0  0  0
 26 42  1  0  0  0  0
 26 43  1  0  0  0  0
 27 45  1  0  0  0  0
 27 46  1  0  0  0  0
 27 47  1  0  0  0  0
M  END
> <PUBCHEM_COMPOUND_CID>
90354097

> <PUBCHEM_CONFORMER_RMSD>
1

> <PUBCHEM_CONFORMER_DIVERSEORDER>
22
53
66
9
20
11
10
34
56
50
1
30
54
69
73
63
2
45
17
71
13
61
72
33
37
48
57
8
55
68
59
32
42
25
52
51
46
35
23
67
65
64
38
40
74
58
39
21
12
36
41
14
28
31
19
26
60
15
29
44
49
43
5
16
70
47
24
7
27
3
18
62
6
4

> <PUBCHEM_MMFF94_PARTIAL_CHARGES>
39
1 -0.36
10 -0.14
11 0.09
12 0.08
13 -0.15
14 -0.15
15 -0.05
16 0.54
17 -0.15
18 -0.15
19 0.09
2 -0.57
20 -0.15
21 -0.15
22 -0.15
23 -0.3
24 0.14
25 0.54
26 0.28
27 0.3
3 -0.57
30 0.15
31 0.37
32 0.15
33 0.15
34 0.15
35 0.15
36 0.15
37 0.15
38 0.15
39 0.15
4 -0.73
40 0.27
44 0.37
5 0.3
6 -0.71
7 -0.73
8 0.44
9 0.05

> <PUBCHEM_EFFECTIVE_ROTOR_COUNT>
8

> <PUBCHEM_PHARMACOPHORE_FEATURES>
10
1 1 acceptor
1 2 acceptor
1 3 acceptor
1 4 donor
1 5 donor
1 6 acceptor
1 7 donor
5 5 6 15 23 24 rings
6 10 18 19 20 21 22 rings
6 9 11 12 13 14 17 rings

> <PUBCHEM_HEAVY_ATOM_COUNT>
27

> <PUBCHEM_ATOM_DEF_STEREO_COUNT>
0

> <PUBCHEM_ATOM_UDEF_STEREO_COUNT>
0

> <PUBCHEM_BOND_DEF_STEREO_COUNT>
0

> <PUBCHEM_BOND_UDEF_STEREO_COUNT>
0

> <PUBCHEM_ISOTOPIC_ATOM_COUNT>
0

> <PUBCHEM_COMPONENT_COUNT>
1

> <PUBCHEM_CACTVS_TAUTO_COUNT>
14

> <PUBCHEM_CONFORMER_ID>
0562B1B100000016

> <PUBCHEM_MMFF94_ENERGY>
76.4617

> <PUBCHEM_FEATURE_SELFOVERLAP>
50.748

> <PUBCHEM_SHAPE_FINGERPRINT>
10 15 17967534579438081689
10280341 67 18127400371400954808
10498660 4 18410297990732780518
10670039 82 18117856399384426046
10906281 52 18193290611444040899
12616971 3 16081090402273180510
12633257 1 15068345631397687986
12838862 33 18335966627986486733
12895837 130 18267868470178128334
13402501 40 18342736351681324144
13617811 41 18333729105150879061
13668630 136 11743836962979037873
13673619 4 11097849688637692030
14123256 34 10663816395140335127
14394314 77 18409168818340959341
14739800 52 18335410271472133242
14790565 3 18051135792323592793
14840074 17 18130501934635133237
15183329 4 14045743690875264195
20511986 3 17895182303388529743
20715895 44 18411138061051091792
21033648 29 18335147517883728230
21682296 61 9151172065305230221
23522609 53 17274273717188020027
23559900 14 18272646904520826577
24771293 8 18409447024578123629
270888 7 18410572916169058514
2748736 6 18408878551222549052
3472631 163 18412263965100018478
34797466 226 17988648458371374581
3504750 166 11674882200214956203
3918712 181 18411979204764191392
4093350 32 17346886623836219725
44249763 50 17988068002268716198
465052 167 9151165467776722826
5104073 3 15502950751854270378
550186 72 18263364694848632245
59682541 52 17274833424330382366
7808743 9 18339075008104774386
7970288 3 10015589402316805340
960060 61 15626223498719538134
9981440 41 18113340816482613771

> <PUBCHEM_SHAPE_MULTIPOLES>
518.12
20.17
3.17
1.21
2.39
0.19
-0.35
17.92
1.12
1.4
0.16
1.56
-0.08
1.53

> <PUBCHEM_SHAPE_SELFOVERLAP>
1121.976

> <PUBCHEM_SHAPE_VOLUME>
284.6

> <PUBCHEM_COORDINATE_TYPE>
2
5
10

$$$$
118662993
  -OEChem-05102415143D

 40 42  0     0  0  0  0  0  0999 V2000
   -3.7013   -1.3703   -2.3158 Cl  0  0  0  0  0  0  0  0  0  0  0  0
   -4.6047    1.4065    1.8654 F   0  0  0  0  0  0  0  0  0  0  0  0
    4.0014    1.8574    0.2414 O   0  0  0  0  0  0  0  0  0  0  0  0
   -0.8256    2.5746   -1.1542 O   0  0  0  0  0  0  0  0  0  0  0  0
   -1.8527    0.6522   -0.3628 N   0  0  0  0  0  0  0  0  0  0  0  0
    6.2251   -1.5636    1.1147 N   0  0  0  0  0  0  0  0  0  0  0  0
    6.2806   -2.1626   -0.0871 N   0  0  0  0  0  0  0  0  0  0  0  0
    3.0743   -0.3408   -0.0518 C   0  0  0  0  0  0  0  0  0  0  0  0
    0.5726    0.8214   -0.4688 C   0  0  0  0  0  0  0  0  0  0  0  0
    2.9331    1.0462   -0.0050 C   0  0  0  0  0  0  0  0  0  0  0  0
   -3.2140    1.1032   -0.5422 C   0  0  0  0  0  0  0  0  0  0  0  0
    1.6822    1.6272   -0.2136 C   0  0  0  0  0  0  0  0  0  0  0  0
    4.3543   -0.9607    0.1620 C   0  0  0  0  0  0  0  0  0  0  0  0
    1.9647   -1.1466   -0.3073 C   0  0  0  0  0  0  0  0  0  0  0  0
    0.7139   -0.5657   -0.5156 C   0  0  0  0  0  0  0  0  0  0  0  0
   -4.2104    0.0850   -0.0685 C   0  0  0  0  0  0  0  0  0  0  0  0
   -0.7319    1.4267   -0.6844 C   0  0  0  0  0  0  0  0  0  0  0  0
   -4.4882   -1.0628   -0.8108 C   0  0  0  0  0  0  0  0  0  0  0  0
   -4.8642    0.3071    1.1435 C   0  0  0  0  0  0  0  0  0  0  0  0
    5.0915   -0.8316    1.3137 C   0  0  0  0  0  0  0  0  0  0  0  0
    5.1352   -1.7907   -0.6645 C   0  0  0  0  0  0  0  0  0  0  0  0
   -5.4200   -1.9886   -0.3411 C   0  0  0  0  0  0  0  0  0  0  0  0
   -5.7961   -0.6186    1.6132 C   0  0  0  0  0  0  0  0  0  0  0  0
   -6.0742   -1.7662    0.8708 C   0  0  0  0  0  0  0  0  0  0  0  0
    3.7542    3.2612    0.2688 C   0  0  0  0  0  0  0  0  0  0  0  0
   -3.3677    1.3529   -1.5985 H   0  0  0  0  0  0  0  0  0  0  0  0
   -3.3204    2.0511   -0.0011 H   0  0  0  0  0  0  0  0  0  0  0  0
    1.5131    2.6980   -0.1818 H   0  0  0  0  0  0  0  0  0  0  0  0
    2.0554   -2.2296   -0.3521 H   0  0  0  0  0  0  0  0  0  0  0  0
   -0.1168   -1.2280   -0.7415 H   0  0  0  0  0  0  0  0  0  0  0  0
   -1.7222   -0.2539    0.0754 H   0  0  0  0  0  0  0  0  0  0  0  0
    4.9215   -0.3007    2.2403 H   0  0  0  0  0  0  0  0  0  0  0  0
    4.9212   -2.1417   -1.6643 H   0  0  0  0  0  0  0  0  0  0  0  0
   -5.6482   -2.8879   -0.9075 H   0  0  0  0  0  0  0  0  0  0  0  0
   -6.3049   -0.4454    2.5568 H   0  0  0  0  0  0  0  0  0  0  0  0
    6.9987   -1.6976    1.7538 H   0  0  0  0  0  0  0  0  0  0  0  0
   -6.7998   -2.4868    1.2366 H   0  0  0  0  0  0  0  0  0  0  0  0
    3.0773    3.5380    1.0845 H   0  0  0  0  0  0  0  0  0  0  0  0
    3.4153    3.6328   -0.7044 H   0  0  0  0  0  0  0  0  0  0  0  0
    4.7117    3.7508    0.4757 H   0  0  0  0  0  0  0  0  0  0  0  0
  1 18  1  0  0  0  0
  2 19  1  0  0  0  0
  3 10  1  0  0  0  0
  3 25  1  0  0  0  0
  4 17  2  0  0  0  0
  5 11  1  0  0  0  0
  5 17  1  0  0  0  0
  5 31  1  0  0  0  0
  6  7  1  0  0  0  0
  6 20  1  0  0  0  0
  6 36  1  0  0  0  0
  7 21  2  0  0  0  0
  8 10  2  0  0  0  0
  8 13  1  0  0  0  0
  8 14  1  0  0  0  0
  9 12  2  0  0  0  0
  9 15  1  0  0  0  0
  9 17  1  0  0  0  0
 10 12  1  0  0  0  0
 11 16  1  0  0  0  0
 11 26  1  0  0  0  0
 11 27  1  0  0  0  0
 12 28  1  0  0  0  0
 13 20  2  0  0  0  0
 13 21  1  0  0  0  0
 14 15  2  0  0  0  0
 14 29  1  0  0  0  0
 15 30  1  0  0  0  0
 16 18  1  0  0  0  0
 16 19  2  0  0  0  0
 18 22  2  0  0  0  0
 19 23  1  0  0  0  0
 20 32  1  0  0  0  0
 21 33  1  0  0  0  0
 22 24  1  0  0  0  0
 22 34  1  0  0  0  0
 23 24  2  0  0  0  0
 23 35  1  0  0  0  0
 24 37  1  0  0  0  0
 25 38  1  0  0  0  0
 25 39  1  0  0  0  0
 25 40  1  0  0  0  0
M  END
> <PUBCHEM_COMPOUND_CID>
118662993

> <PUBCHEM_CONFORMER_RMSD>
0.8

> <PUBCHEM_CONFORMER_DIVERSEORDER>
10
51
54
15
68
56
29
36
55
66
59
73
49
8
70
39
67
71
44
33
16
53
34
61
32
20
64
31
38
35
50
63
46
58
1
69
52
65
60
30
3
45
17
14
41
27
19
72
4
37
23
9
42
21
22
6
48
43
13
26
5
47
12
57
40
2
24
18
62
28
25
11
7

> <PUBCHEM_MMFF94_PARTIAL_CHARGES>
35
1 -0.18
10 0.08
11 0.44
12 -0.15
13 -0.05
14 -0.15
15 -0.15
16 -0.14
17 0.54
18 0.18
19 0.19
2 -0.19
20 -0.3
21 0.14
22 -0.15
23 -0.15
24 -0.15
25 0.28
28 0.15
29 0.15
3 -0.36
30 0.15
31 0.37
32 0.15
33 0.15
34 0.15
35 0.15
36 0.27
37 0.15
4 -0.57
5 -0.73
6 0.3
7 -0.71
8 0.05
9 0.09

> <PUBCHEM_EFFECTIVE_ROTOR_COUNT>
6

> <PUBCHEM_PHARMACOPHORE_FEATURES>
8
1 3 acceptor
1 4 acceptor
1 5 donor
1 6 donor
1 7 acceptor
5 6 7 13 20 21 rings
6 16 18 19 22 23 24 rings
6 8 9 10 12 14 15 rings

> <PUBCHEM_HEAVY_ATOM_COUNT>
25

> <PUBCHEM_ATOM_DEF_STEREO_COUNT>
0

> <PUBCHEM_ATOM_UDEF_STEREO_COUNT>
0

> <PUBCHEM_BOND_DEF_STEREO_COUNT>
0

> <PUBCHEM_BOND_UDEF_STEREO_COUNT>
0

> <PUBCHEM_ISOTOPIC_ATOM_COUNT>
0

> <PUBCHEM_COMPONENT_COUNT>
1

> <PUBCHEM_CACTVS_TAUTO_COUNT>
9

> <PUBCHEM_CONFORMER_ID>
0712A7510000000A

> <PUBCHEM_MMFF94_ENERGY>
69.1831

> <PUBCHEM_FEATURE_SELFOVERLAP>
40.597

> <PUBCHEM_SHAPE_FINGERPRINT>
10 15 13973679559744202183
10319926 262 17346331366453997045
11545043 162 18113894927392871437
12107183 9 18127422163589682801
12166972 35 17022910055171142214
12422481 6 17917994940666675990
12616971 3 18201717375015672455
13540713 4 18188750796136466740
13544653 18 18187364350580567165
13782708 43 17822004268990919986
13862211 1 18187080633435677514
13955234 65 18339919437498906224
14123256 34 18336270063521202966
14341114 328 17560810965217468593
14739800 52 17202191027108205072
14849402 71 18129940204416143896
14950920 106 18202563990732605345
15238133 3 16702308944343308176
15250474 111 17846207916884116695
15348495 7 16702012102084745698
15475509 35 17386273325909935824
15510800 12 17097223951161767107
15880784 105 18410296930197384953
16110190 28 18272090521883299223
16112460 7 18340209686428826450
17349148 13 17603311431415412751
17780758 139 18202283572523506217
17844677 252 18408886226456071381
18222031 100 16732982041756181948
18927931 339 18113621145192847567
19377110 9 18059850731110567928
19841028 212 18265606775346375131
20028762 73 18412824694223811278
20281389 69 11743831469673973678
21049683 271 18334300877652746924
21065198 48 18201443614328012073
21120745 212 12599602148455671381
21150785 3 15647061464732725662
2303208 19 17676203589233747023
23522609 53 18046943474087234076
23559900 14 16660656184214134340
3663271 9 18130510828942664993
3737641 26 18196656194155323006
4093350 32 16845578647824625780
465052 167 18410014317265467038
5104073 3 18343021103327769793
5758199 1 18055353789295020488
636775 8 18195535784435510054
7495541 125 18261391122925691004
7970288 3 18260548961338439739
8863177 126 18114751524223332346

> <PUBCHEM_SHAPE_MULTIPOLES>
482.4
17.05
2.71
1.42
1.59
1.24
0.02
-10.36
-5.9
-2.66
0.21
1.95
-0.28
-0.68

> <PUBCHEM_SHAPE_SELFOVERLAP>
1044.633

> <PUBCHEM_SHAPE_VOLUME>
265.5

> <PUBCHEM_COORDINATE_TYPE>
2
5
10

$$$$
76070677
  -OEChem-05102415143D

 40 42  0     0  0  0  0  0  0999 V2000
   -3.9701   -0.8710   -2.4654 Cl  0  0  0  0  0  0  0  0  0  0  0  0
    3.8964    1.8069   -0.2764 O   0  0  0  0  0  0  0  0  0  0  0  0
   -1.0310    2.7605    0.4193 O   0  0  0  0  0  0  0  0  0  0  0  0
   -2.0226    0.7798   -0.2668 N   0  0  0  0  0  0  0  0  0  0  0  0
    5.6831   -2.5336   -0.1180 N   0  0  0  0  0  0  0  0  0  0  0  0
    6.3714   -1.4802    0.3540 N   0  0  0  0  0  0  0  0  0  0  0  0
    2.8745   -0.3333    0.1144 C   0  0  0  0  0  0  0  0  0  0  0  0
    0.3776    0.9112    0.1119 C   0  0  0  0  0  0  0  0  0  0  0  0
    2.7823    1.0447   -0.0821 C   0  0  0  0  0  0  0  0  0  0  0  0
   -3.3747    1.2854   -0.3388 C   0  0  0  0  0  0  0  0  0  0  0  0
    1.5338    1.6668   -0.0833 C   0  0  0  0  0  0  0  0  0  0  0  0
    4.1515   -0.9947    0.1211 C   0  0  0  0  0  0  0  0  0  0  0  0
    1.7183   -1.0890    0.3093 C   0  0  0  0  0  0  0  0  0  0  0  0
    0.4699   -0.4668    0.3083 C   0  0  0  0  0  0  0  0  0  0  0  0
   -0.9239    1.5599    0.1124 C   0  0  0  0  0  0  0  0  0  0  0  0
   -4.3881    0.2285   -0.0068 C   0  0  0  0  0  0  0  0  0  0  0  0
    4.3495   -2.2947   -0.2755 C   0  0  0  0  0  0  0  0  0  0  0  0
    5.4305   -0.5432    0.4983 C   0  0  0  0  0  0  0  0  0  0  0  0
   -4.7157   -0.7818   -0.9112 C   0  0  0  0  0  0  0  0  0  0  0  0
   -5.0081    0.2746    1.2420 C   0  0  0  0  0  0  0  0  0  0  0  0
   -5.6632   -1.7458   -0.5670 C   0  0  0  0  0  0  0  0  0  0  0  0
   -5.9555   -0.6898    1.5864 C   0  0  0  0  0  0  0  0  0  0  0  0
   -6.2831   -1.6998    0.6818 C   0  0  0  0  0  0  0  0  0  0  0  0
    3.6971    3.2056   -0.4681 C   0  0  0  0  0  0  0  0  0  0  0  0
   -3.5350    1.6857   -1.3462 H   0  0  0  0  0  0  0  0  0  0  0  0
   -3.4725    2.1428    0.3378 H   0  0  0  0  0  0  0  0  0  0  0  0
    1.4032    2.7323   -0.2378 H   0  0  0  0  0  0  0  0  0  0  0  0
    1.7523   -2.1610    0.4866 H   0  0  0  0  0  0  0  0  0  0  0  0
   -0.4021   -1.0862    0.4972 H   0  0  0  0  0  0  0  0  0  0  0  0
   -1.8696   -0.1609   -0.6158 H   0  0  0  0  0  0  0  0  0  0  0  0
    3.6910   -3.0633   -0.6564 H   0  0  0  0  0  0  0  0  0  0  0  0
   -4.7631    1.0532    1.9596 H   0  0  0  0  0  0  0  0  0  0  0  0
    5.7310    0.4199    0.8857 H   0  0  0  0  0  0  0  0  0  0  0  0
   -5.9296   -2.5396   -1.2603 H   0  0  0  0  0  0  0  0  0  0  0  0
   -6.4377   -0.6545    2.5588 H   0  0  0  0  0  0  0  0  0  0  0  0
    6.1889   -3.3884   -0.3140 H   0  0  0  0  0  0  0  0  0  0  0  0
   -7.0208   -2.4505    0.9501 H   0  0  0  0  0  0  0  0  0  0  0  0
    3.1298    3.4130   -1.3819 H   0  0  0  0  0  0  0  0  0  0  0  0
    3.2578    3.6781    0.4173 H   0  0  0  0  0  0  0  0  0  0  0  0
    4.6870    3.6539   -0.6045 H   0  0  0  0  0  0  0  0  0  0  0  0
  1 19  1  0  0  0  0
  2  9  1  0  0  0  0
  2 24  1  0  0  0  0
  3 15  2  0  0  0  0
  4 10  1  0  0  0  0
  4 15  1  0  0  0  0
  4 30  1  0  0  0  0
  5  6  1  0  0  0  0
  5 17  1  0  0  0  0
  5 36  1  0  0  0  0
  6 18  2  0  0  0  0
  7  9  2  0  0  0  0
  7 12  1  0  0  0  0
  7 13  1  0  0  0  0
  8 11  2  0  0  0  0
  8 14  1  0  0  0  0
  8 15  1  0  0  0  0
  9 11  1  0  0  0  0
 10 16  1  0  0  0  0
 10 25  1  0  0  0  0
 10 26  1  0  0  0  0
 11 27  1  0  0  0  0
 12 17  2  0  0  0  0
 12 18  1  0  0  0  0
 13 14  2  0  0  0  0
 13 28  1  0  0  0  0
 14 29  1  0  0  0  0
 16 19  1  0  0  0  0
 16 20  2  0  0  0  0
 17 31  1  0  0  0  0
 18 33  1  0  0  0  0
 19 21  2  0  0  0  0
 20 22  1  0  0  0  0
 20 32  1  0  0  0  0
 21 23  1  0  0  0  0
 21 34  1  0  0  0  0
 22 23  2  0  0  0  0
 22 35  1  0  0  0  0
 23 37  1  0  0  0  0
 24 38  1  0  0  0  0
 24 39  1  0  0  0  0
 24 40  1  0  0  0  0
M  END
> <PUBCHEM_COMPOUND_CID>
76070677

> <PUBCHEM_CONFORMER_RMSD>
0.8

> <PUBCHEM_CONFORMER_DIVERSEORDER>
9
59
36
62
13
37
41
29
20
22
52
5
63
25
30
31
51
60
1
6
54
47
49
55
39
57
45
56
48
24
44
34
42
53
10
23
14
40
50
21
38
17
2
19
7
33
27
16
3
43
28
32
46
12
4
58
26
61
15
35
18
11
8

> <PUBCHEM_MMFF94_PARTIAL_CHARGES>
35
1 -0.18
10 0.44
11 -0.15
12 -0.05
13 -0.15
14 -0.15
15 0.54
16 -0.14
17 -0.3
18 0.14
19 0.18
2 -0.36
20 -0.15
21 -0.15
22 -0.15
23 -0.15
24 0.28
27 0.15
28 0.15
29 0.15
3 -0.57
30 0.37
31 0.15
32 0.15
33 0.15
34 0.15
35 0.15
36 0.27
37 0.15
4 -0.73
5 0.3
6 -0.71
7 0.05
8 0.09
9 0.08

> <PUBCHEM_EFFECTIVE_ROTOR_COUNT>
6

> <PUBCHEM_PHARMACOPHORE_FEATURES>
8
1 2 acceptor
1 3 acceptor
1 4 donor
1 5 donor
1 6 acceptor
5 5 6 12 17 18 rings
6 16 19 20 21 22 23 rings
6 7 8 9 11 13 14 rings

> <PUBCHEM_HEAVY_ATOM_COUNT>
24

> <PUBCHEM_ATOM_DEF_STEREO_COUNT>
0

> <PUBCHEM_ATOM_UDEF_STEREO_COUNT>
0

> <PUBCHEM_BOND_DEF_STEREO_COUNT>
0

> <PUBCHEM_BOND_UDEF_STEREO_COUNT>
0

> <PUBCHEM_ISOTOPIC_ATOM_COUNT>
0

> <PUBCHEM_COMPONENT_COUNT>
1

> <PUBCHEM_CACTVS_TAUTO_COUNT>
7

> <PUBCHEM_CONFORMER_ID>
0488BF1500000009

> <PUBCHEM_MMFF94_ENERGY>
69.0388

> <PUBCHEM_FEATURE_SELFOVERLAP>
40.597

> <PUBCHEM_SHAPE_FINGERPRINT>
10 15 12391509802390983663
12107183 9 18198636428119932625
12166972 35 17749395870623628868
12236239 1 18201723985677235553
12422481 6 17203047374487352774
12616971 3 18273213114453970045
12633257 1 16343981434030824049
13103583 49 17561088012325236873
13533116 47 18411141363802120080
13782708 43 17676202455441586858
13862211 1 18261951856533783778
13955234 65 18340764957519091720
14849402 71 17774434018732597736
15188451 53 16128078058389097303
15250474 111 17917139615405088815
15537594 2 18201158879402299101
16110190 28 18202285814449312615
17492 89 18339079294207621036
17780758 139 17775566417035052723
17844677 252 18408326575237895973
19377110 9 18060420248200977272
20028762 73 18341894086761584870
20281389 69 10591755489387476031
20645477 70 18260829319380306624
21033650 10 15864063227100762141
21150785 3 16877953737032856414
21267235 1 18409736144511899922
21403212 168 18130517324003861257
21709351 56 18335132047094841917
22393880 68 17749941185715509085
22950370 63 18342460374278426929
2303208 19 17603868922845384459
23402539 116 18337105670545443941
23522609 53 18123786168340856057
23559900 14 18337097982512312345
3004659 81 18186234026545672841
314194 84 18270398407873925981
34797466 226 16515690004371897781
351380 3 18412261727258656643
3737641 26 18057890138738499599
4015057 19 18262238927610255769
46194498 28 17313384573610764340
465052 167 18341616988777918606
5104073 3 18201721734471288553
54039377 194 18341336625828784446
6431902 208 18410290290051682047
7970288 3 18340482370204035703

> <PUBCHEM_SHAPE_MULTIPOLES>
469.1
16.99
2.78
1.19
4.93
1.03
0.46
-10.85
-1.97
-3.5
0.24
2.37
-0.32
-0.64

> <PUBCHEM_SHAPE_SELFOVERLAP>
1013.578

> <PUBCHEM_SHAPE_VOLUME>
258

> <PUBCHEM_COORDINATE_TYPE>
2
5
10

$$$$
118662965
  -OEChem-05102415143D

 57 59  0     0  0  0  0  0  0999 V2000
   -4.7876    3.3291    0.8807 O   0  0  0  0  0  0  0  0  0  0  0  0
   -5.8184    0.6473   -0.1296 O   0  0  0  0  0  0  0  0  0  0  0  0
    2.6514    1.6583    0.0596 O   0  0  0  0  0  0  0  0  0  0  0  0
    1.3500   -3.9251   -1.3784 O   0  0  0  0  0  0  0  0  0  0  0  0
   -3.6643    1.2209   -0.7706 N   0  0  0  0  0  0  0  0  0  0  0  0
   -0.1507   -2.5210   -0.3035 N   0  0  0  0  0  0  0  0  0  0  0  0
    6.7470    2.4592    0.0552 N   0  0  0  0  0  0  0  0  0  0  0  0
    7.1380    1.8677    1.1969 N   0  0  0  0  0  0  0  0  0  0  0  0
   -3.8647    3.6218   -0.1711 C   0  0  0  0  0  0  0  0  0  0  0  0
   -3.9762    2.5400   -1.2556 C   0  0  0  0  0  0  0  0  0  0  0  0
   -2.4646    3.6838    0.4419 C   0  0  0  0  0  0  0  0  0  0  0  0
   -4.2379    4.9872   -0.7558 C   0  0  0  0  0  0  0  0  0  0  0  0
   -4.6266    0.3716   -0.2399 C   0  0  0  0  0  0  0  0  0  0  0  0
   -4.1390   -0.9466    0.2412 C   0  0  0  0  0  0  0  0  0  0  0  0
   -2.5363   -2.7513    0.1332 C   0  0  0  0  0  0  0  0  0  0  0  0
   -1.3124   -3.3580   -0.4653 C   0  0  0  0  0  0  0  0  0  0  0  0
   -2.9936   -1.5132   -0.3182 C   0  0  0  0  0  0  0  0  0  0  0  0
   -4.8272   -1.6182    1.2518 C   0  0  0  0  0  0  0  0  0  0  0  0
   -3.2244   -3.4229    1.1439 C   0  0  0  0  0  0  0  0  0  0  0  0
    2.2025   -1.9205   -0.5106 C   0  0  0  0  0  0  0  0  0  0  0  0
    4.2696   -0.1181    0.0012 C   0  0  0  0  0  0  0  0  0  0  0  0
   -4.3700   -2.8564    1.7030 C   0  0  0  0  0  0  0  0  0  0  0  0
    2.9545    0.3373   -0.0930 C   0  0  0  0  0  0  0  0  0  0  0  0
    1.1020   -2.8809   -0.7812 C   0  0  0  0  0  0  0  0  0  0  0  0
    1.9211   -0.5639   -0.3489 C   0  0  0  0  0  0  0  0  0  0  0  0
    3.5177   -2.3760   -0.4165 C   0  0  0  0  0  0  0  0  0  0  0  0
    4.5512   -1.4748   -0.1608 C   0  0  0  0  0  0  0  0  0  0  0  0
    5.3500    0.7936    0.2660 C   0  0  0  0  0  0  0  0  0  0  0  0
    5.6800    1.8544   -0.5415 C   0  0  0  0  0  0  0  0  0  0  0  0
    6.2808    0.8508    1.3204 C   0  0  0  0  0  0  0  0  0  0  0  0
    1.2781    2.0237   -0.0545 C   0  0  0  0  0  0  0  0  0  0  0  0
   -4.9952    2.5195   -1.6601 H   0  0  0  0  0  0  0  0  0  0  0  0
   -3.2884    2.7489   -2.0826 H   0  0  0  0  0  0  0  0  0  0  0  0
   -1.7002    3.8682   -0.3200 H   0  0  0  0  0  0  0  0  0  0  0  0
   -2.4006    4.4803    1.1924 H   0  0  0  0  0  0  0  0  0  0  0  0
   -2.2173    2.7541    0.9662 H   0  0  0  0  0  0  0  0  0  0  0  0
   -5.2644    4.9779   -1.1396 H   0  0  0  0  0  0  0  0  0  0  0  0
   -3.5648    5.2743   -1.5703 H   0  0  0  0  0  0  0  0  0  0  0  0
   -4.2035    5.7676    0.0130 H   0  0  0  0  0  0  0  0  0  0  0  0
   -2.6850    0.9572   -0.7710 H   0  0  0  0  0  0  0  0  0  0  0  0
   -4.7143    4.0297    1.5512 H   0  0  0  0  0  0  0  0  0  0  0  0
   -1.0822   -4.3308   -0.0148 H   0  0  0  0  0  0  0  0  0  0  0  0
   -1.4650   -3.5349   -1.5367 H   0  0  0  0  0  0  0  0  0  0  0  0
   -2.4593   -1.0302   -1.1317 H   0  0  0  0  0  0  0  0  0  0  0  0
   -5.7189   -1.1913    1.7033 H   0  0  0  0  0  0  0  0  0  0  0  0
   -2.8803   -4.3879    1.5063 H   0  0  0  0  0  0  0  0  0  0  0  0
   -0.2532   -1.6900    0.2698 H   0  0  0  0  0  0  0  0  0  0  0  0
   -4.9052   -3.3789    2.4905 H   0  0  0  0  0  0  0  0  0  0  0  0
    0.8961   -0.2390   -0.4733 H   0  0  0  0  0  0  0  0  0  0  0  0
    3.7568   -3.4295   -0.5351 H   0  0  0  0  0  0  0  0  0  0  0  0
    5.5700   -1.8493   -0.0921 H   0  0  0  0  0  0  0  0  0  0  0  0
    5.2676    2.2299   -1.4679 H   0  0  0  0  0  0  0  0  0  0  0  0
    6.3734    0.1963    2.1758 H   0  0  0  0  0  0  0  0  0  0  0  0
    7.2556    3.2755   -0.2609 H   0  0  0  0  0  0  0  0  0  0  0  0
    1.2206    3.1054    0.1073 H   0  0  0  0  0  0  0  0  0  0  0  0
    0.6658    1.5583    0.7258 H   0  0  0  0  0  0  0  0  0  0  0  0
    0.8906    1.8375   -1.0621 H   0  0  0  0  0  0  0  0  0  0  0  0
  1  9  1  0  0  0  0
  1 41  1  0  0  0  0
  2 13  2  0  0  0  0
  3 23  1  0  0  0  0
  3 31  1  0  0  0  0
  4 24  2  0  0  0  0
  5 10  1  0  0  0  0
  5 13  1  0  0  0  0
  5 40  1  0  0  0  0
  6 16  1  0  0  0  0
  6 24  1  0  0  0  0
  6 47  1  0  0  0  0
  7  8  1  0  0  0  0
  7 29  1  0  0  0  0
  7 54  1  0  0  0  0
  8 30  2  0  0  0  0
  9 10  1  0  0  0  0
  9 11  1  0  0  0  0
  9 12  1  0  0  0  0
 10 32  1  0  0  0  0
 10 33  1  0  0  0  0
 11 34  1  0  0  0  0
 11 35  1  0  0  0  0
 11 36  1  0  0  0  0
 12 37  1  0  0  0  0
 12 38  1  0  0  0  0
 12 39  1  0  0  0  0
 13 14  1  0  0  0  0
 14 17  1  0  0  0  0
 14 18  2  0  0  0  0
 15 16  1  0  0  0  0
 15 17  2  0  0  0  0
 15 19  1  0  0  0  0
 16 42  1  0  0  0  0
 16 43  1  0  0  0  0
 17 44  1  0  0  0  0
 18 22  1  0  0  0  0
 18 45  1  0  0  0  0
 19 22  2  0  0  0  0
 19 46  1  0  0  0  0
 20 24  1  0  0  0  0
 20 25  2  0  0  0  0
 20 26  1  0  0  0  0
 21 23  2  0  0  0  0
 21 27  1  0  0  0  0
 21 28  1  0  0  0  0
 22 48  1  0  0  0  0
 23 25  1  0  0  0  0
 25 49  1  0  0  0  0
 26 27  2  0  0  0  0
 26 50  1  0  0  0  0
 27 51  1  0  0  0  0
 28 29  2  0  0  0  0
 28 30  1  0  0  0  0
 29 52  1  0  0  0  0
 30 53  1  0  0  0  0
 31 55  1  0  0  0  0
 31 56  1  0  0  0  0
 31 57  1  0  0  0  0
M  END
> <PUBCHEM_COMPOUND_CID>
118662965

> <PUBCHEM_CONFORMER_RMSD>
1

> <PUBCHEM_CONFORMER_DIVERSEORDER>
15
136
171
108
145
103
63
213
143
167
161
43
186
214
71
58
60
9
101
109
44
126
150
26
8
52
88
125
105
54
39
197
12
163
142
194
140
20
110
201
187
177
79
175
97
16
203
208
183
180
116
157
102
96
144
178
1
112
57
164
188
117
48
185
196
91
50
113
73
24
176
193
40
37
152
114
80
86
174
18
146
153
32
7
99
149
21
62
160
204
106
132
165
211
155
121
36
10
25
181
135
87
151
30
111
19
92
212
199
3
75
29
100
137
154
46
64
195
148
17
35
82
77
5
22
134
118
47
13
104
93
162
173
166
172
94
38
170
130
158
81
206
6
131
138
129
31
189
200
191
78
14
119
207
28
156
128
41
123
65
122
182
33
23
74
147
124
169
120
49
107
115
59
141
69
205
179
90
85
68
55
45
83
53
11
95
56
42
34
209
139
67
190
66
127
184
89
198
133
84
51
76
202
210
168
159
192
70
61
72
27
2
98
4

> <PUBCHEM_MMFF94_PARTIAL_CHARGES>
42
1 -0.68
10 0.3
13 0.54
14 0.09
15 -0.14
16 0.44
17 -0.15
18 -0.15
19 -0.15
2 -0.57
20 0.09
21 0.05
22 -0.15
23 0.08
24 0.54
25 -0.15
26 -0.15
27 -0.15
28 -0.05
29 -0.3
3 -0.36
30 0.14
31 0.28
4 -0.57
40 0.37
41 0.4
44 0.15
45 0.15
46 0.15
47 0.37
48 0.15
49 0.15
5 -0.73
50 0.15
51 0.15
52 0.15
53 0.15
54 0.27
6 -0.73
7 0.3
8 -0.71
9 0.28

> <PUBCHEM_EFFECTIVE_ROTOR_COUNT>
10

> <PUBCHEM_PHARMACOPHORE_FEATURES>
13
1 1 acceptor
1 1 donor
1 2 acceptor
1 3 acceptor
1 4 acceptor
1 5 donor
1 6 donor
1 7 donor
1 8 acceptor
3 9 11 12 hydrophobe
5 7 8 28 29 30 rings
6 14 15 17 18 19 22 rings
6 20 21 23 25 26 27 rings

> <PUBCHEM_HEAVY_ATOM_COUNT>
31

> <PUBCHEM_ATOM_DEF_STEREO_COUNT>
0

> <PUBCHEM_ATOM_UDEF_STEREO_COUNT>
0

> <PUBCHEM_BOND_DEF_STEREO_COUNT>
0

> <PUBCHEM_BOND_UDEF_STEREO_COUNT>
0

> <PUBCHEM_ISOTOPIC_ATOM_COUNT>
0

> <PUBCHEM_COMPONENT_COUNT>
1

> <PUBCHEM_CACTVS_TAUTO_COUNT>
18

> <PUBCHEM_CONFORMER_ID>
0712A7350000000F

> <PUBCHEM_MMFF94_ENERGY>
85.1372

> <PUBCHEM_FEATURE_SELFOVERLAP>
65.976

> <PUBCHEM_SHAPE_FINGERPRINT>
100830 39 18409447024941899304
10462674 296 17622719143249746806
10675989 125 17618781358403606993
10838868 160 18200304430414624497
10939801 23 18191869135919708248
11135609 187 18192699074194501613
11408170 253 18122922081868231140
12107183 9 18117262684823733506
12107698 1 17897163735116427067
13402501 40 18411420618270007095
13560911 43 18190460648196033707
13726171 33 18411986844840728384
13947920 24 18343584053233432761
14466204 15 18338513166252778930
14790565 3 18194402415141734628
14904385 31 18410857668168970777
15081414 286 18129394829399883558
15274700 208 16987139738786876024
15320467 1 18411138073577706805
15347590 135 17968667141404320931
15400415 2 18121218671361958365
15419008 145 18335974372592665592
16067689 134 16327387247673123745
16708801 149 18196356044591789576
16992828 155 18127687338632456471
16993438 75 18409166619179683657
19611394 137 17538010551739047387
20609170 109 17242748725701591337
21033648 144 18201443605242725255
21792964 463 17750526251210587652
21859007 373 18413109455562075566
22121540 332 18342184336941252350
22956985 138 16672482780971611859
23398203 216 17983600514985210905
24771293 8 18270976730291331819
4073 2 18409448059797253368
4144715 1 18334021579523095098
437795 96 18340477980214326217
50150288 127 16270259033096202185
5047190 92 18195811774332522065
508706 21 18337115558066769487
5104073 3 18187077335185839002

> <PUBCHEM_SHAPE_MULTIPOLES>
594.56
16.7
6.35
1.13
16.65
3.02
0.21
11.73
4.18
-8.31
-0.55
-0.35
-0.36
3.08

> <PUBCHEM_SHAPE_SELFOVERLAP>
1274.352

> <PUBCHEM_SHAPE_VOLUME>
329.4

> <PUBCHEM_COORDINATE_TYPE>
2
5
10

$$$$
118663069
  -OEChem-05102415143D

 50 52  0     1  0  0  0  0  0999 V2000
    5.0898   -0.0308    1.6609 F   0  0  0  0  0  0  0  0  0  0  0  0
    3.3474   -1.7889   -2.1343 O   0  0  0  0  0  0  0  0  0  0  0  0
    0.9432    0.0878    1.9932 O   0  0  0  0  0  0  0  0  0  0  0  0
   -4.1146   -0.2075    2.0569 O   0  0  0  0  0  0  0  0  0  0  0  0
    1.4531   -0.6497   -0.1447 N   0  0  0  0  0  0  0  0  0  0  0  0
   -6.8037   -0.1486   -1.6282 N   0  0  0  0  0  0  0  0  0  0  0  0
   -7.0697    0.9140   -0.8495 N   0  0  0  0  0  0  0  0  0  0  0  0
    3.4325   -2.0449   -0.7299 C   0  0  0  0  0  0  0  0  0  0  0  0
    2.8736   -0.8356    0.0788 C   0  0  1  0  0  0  0  0  0  0  0  0
    3.6142    0.4748   -0.1284 C   0  0  0  0  0  0  0  0  0  0  0  0
    2.5935   -3.3056   -0.4686 C   0  0  0  0  0  0  0  0  0  0  0  0
    4.8959   -2.3539   -0.3829 C   0  0  0  0  0  0  0  0  0  0  0  0
    4.6964    0.8032    0.6882 C   0  0  0  0  0  0  0  0  0  0  0  0
    3.2116    1.3496   -1.1378 C   0  0  0  0  0  0  0  0  0  0  0  0
    0.6026   -0.1977    0.8482 C   0  0  0  0  0  0  0  0  0  0  0  0
   -0.8291   -0.0860    0.4677 C   0  0  0  0  0  0  0  0  0  0  0  0
    5.3760    2.0061    0.4956 C   0  0  0  0  0  0  0  0  0  0  0  0
    3.8913    2.5523   -1.3306 C   0  0  0  0  0  0  0  0  0  0  0  0
    4.9734    2.8807   -0.5138 C   0  0  0  0  0  0  0  0  0  0  0  0
   -1.8210   -0.1988    1.4419 C   0  0  0  0  0  0  0  0  0  0  0  0
   -1.1813    0.1337   -0.8641 C   0  0  0  0  0  0  0  0  0  0  0  0
   -3.5174    0.1275   -0.2473 C   0  0  0  0  0  0  0  0  0  0  0  0
   -3.1651   -0.0921    1.0846 C   0  0  0  0  0  0  0  0  0  0  0  0
   -2.5254    0.2401   -1.2215 C   0  0  0  0  0  0  0  0  0  0  0  0
   -4.8968    0.2424   -0.6372 C   0  0  0  0  0  0  0  0  0  0  0  0
   -5.5161   -0.5895   -1.5378 C   0  0  0  0  0  0  0  0  0  0  0  0
   -5.9012    1.1483   -0.2466 C   0  0  0  0  0  0  0  0  0  0  0  0
   -3.6533   -0.4310    3.3872 C   0  0  0  0  0  0  0  0  0  0  0  0
    2.9719   -1.0922    1.1434 H   0  0  0  0  0  0  0  0  0  0  0  0
    1.5675   -3.1937   -0.8360 H   0  0  0  0  0  0  0  0  0  0  0  0
    3.0066   -4.1687   -1.0044 H   0  0  0  0  0  0  0  0  0  0  0  0
    2.5599   -3.5511    0.5980 H   0  0  0  0  0  0  0  0  0  0  0  0
    5.0306   -2.5196    0.6907 H   0  0  0  0  0  0  0  0  0  0  0  0
    5.2407   -3.2508   -0.9114 H   0  0  0  0  0  0  0  0  0  0  0  0
    5.5627   -1.5488   -0.7083 H   0  0  0  0  0  0  0  0  0  0  0  0
    1.1021   -0.8798   -1.0679 H   0  0  0  0  0  0  0  0  0  0  0  0
    3.7141   -2.5564   -2.6057 H   0  0  0  0  0  0  0  0  0  0  0  0
    2.3820    1.1137   -1.7985 H   0  0  0  0  0  0  0  0  0  0  0  0
    6.2185    2.2613    1.1315 H   0  0  0  0  0  0  0  0  0  0  0  0
    3.5803    3.2318   -2.1187 H   0  0  0  0  0  0  0  0  0  0  0  0
    5.5030    3.8168   -0.6644 H   0  0  0  0  0  0  0  0  0  0  0  0
   -1.4902   -0.3758    2.4593 H   0  0  0  0  0  0  0  0  0  0  0  0
   -0.4428    0.2640   -1.6493 H   0  0  0  0  0  0  0  0  0  0  0  0
   -2.7774    0.4237   -2.2636 H   0  0  0  0  0  0  0  0  0  0  0  0
   -5.1715   -1.4386   -2.1118 H   0  0  0  0  0  0  0  0  0  0  0  0
   -5.8342    1.9711    0.4514 H   0  0  0  0  0  0  0  0  0  0  0  0
   -7.5507   -0.5244   -2.1988 H   0  0  0  0  0  0  0  0  0  0  0  0
   -4.5400   -0.4948    4.0269 H   0  0  0  0  0  0  0  0  0  0  0  0
   -3.0589    0.4113    3.7576 H   0  0  0  0  0  0  0  0  0  0  0  0
   -3.1300   -1.3889    3.4795 H   0  0  0  0  0  0  0  0  0  0  0  0
  1 13  1  0  0  0  0
  2  8  1  0  0  0  0
  2 37  1  0  0  0  0
  3 15  2  0  0  0  0
  4 23  1  0  0  0  0
  4 28  1  0  0  0  0
  5  9  1  0  0  0  0
  5 15  1  0  0  0  0
  5 36  1  0  0  0  0
  6  7  1  0  0  0  0
  6 26  1  0  0  0  0
  6 47  1  0  0  0  0
  7 27  2  0  0  0  0
  8  9  1  0  0  0  0
  8 11  1  0  0  0  0
  8 12  1  0  0  0  0
  9 10  1  0  0  0  0
  9 29  1  0  0  0  0
 10 13  1  0  0  0  0
 10 14  2  0  0  0  0
 11 30  1  0  0  0  0
 11 31  1  0  0  0  0
 11 32  1  0  0  0  0
 12 33  1  0  0  0  0
 12 34  1  0  0  0  0
 12 35  1  0  0  0  0
 13 17  2  0  0  0  0
 14 18  1  0  0  0  0
 14 38  1  0  0  0  0
 15 16  1  0  0  0  0
 16 20  2  0  0  0  0
 16 21  1  0  0  0  0
 17 19  1  0  0  0  0
 17 39  1  0  0  0  0
 18 19  2  0  0  0  0
 18 40  1  0  0  0  0
 19 41  1  0  0  0  0
 20 23  1  0  0  0  0
 20 42  1  0  0  0  0
 21 24  2  0  0  0  0
 21 43  1  0  0  0  0
 22 23  2  0  0  0  0
 22 24  1  0  0  0  0
 22 25  1  0  0  0  0
 24 44  1  0  0  0  0
 25 26  2  0  0  0  0
 25 27  1  0  0  0  0
 26 45  1  0  0  0  0
 27 46  1  0  0  0  0
 28 48  1  0  0  0  0
 28 49  1  0  0  0  0
 28 50  1  0  0  0  0
M  END
> <PUBCHEM_COMPOUND_CID>
118663069

> <PUBCHEM_CONFORMER_RMSD>
0.8

> <PUBCHEM_CONFORMER_DIVERSEORDER>
9
64
112
89
111
130
185
167
108
116
75
161
109
174
47
83
67
123
138
129
165
154
17
65
127
39
101
104
48
69
156
94
86
87
125
84
115
140
122
137
121
181
70
100
168
43
124
172
184
78
171
68
178
105
145
173
151
144
169
52
41
25
128
162
146
131
22
76
63
132
126
135
55
110
71
134
91
142
56
160
38
95
189
23
97
82
40
175
188
62
149
81
80
141
12
114
155
117
152
133
24
58
113
53
180
147
159
79
166
26
120
29
61
28
148
158
143
186
139
44
163
72
103
107
93
183
177
57
36
37
179
106
88
98
77
153
176
85
99
31
66
33
49
170
27
92
119
190
15
187
96
13
32
118
21
42
73
45
182
14
30
50
46
16
34
4
10
35
157
51
20
74
3
59
11
54
5
90
6
102
18
19
7
136
60
1
164
150
8
2

> <PUBCHEM_MMFF94_PARTIAL_CHARGES>
38
1 -0.19
10 -0.14
13 0.19
14 -0.15
15 0.54
16 0.09
17 -0.15
18 -0.15
19 -0.15
2 -0.68
20 -0.15
21 -0.15
22 0.05
23 0.08
24 -0.15
25 -0.05
26 -0.3
27 0.14
28 0.28
3 -0.57
36 0.37
37 0.4
38 0.15
39 0.15
4 -0.36
40 0.15
41 0.15
42 0.15
43 0.15
44 0.15
45 0.15
46 0.15
47 0.27
5 -0.73
6 0.3
7 -0.71
8 0.28
9 0.44

> <PUBCHEM_EFFECTIVE_ROTOR_COUNT>
7

> <PUBCHEM_PHARMACOPHORE_FEATURES>
11
1 2 acceptor
1 2 donor
1 3 acceptor
1 4 acceptor
1 5 donor
1 6 donor
1 7 acceptor
3 8 11 12 hydrophobe
5 6 7 25 26 27 rings
6 10 13 14 17 18 19 rings
6 16 20 21 22 23 24 rings

> <PUBCHEM_HEAVY_ATOM_COUNT>
28

> <PUBCHEM_ATOM_DEF_STEREO_COUNT>
0

> <PUBCHEM_ATOM_UDEF_STEREO_COUNT>
1

> <PUBCHEM_BOND_DEF_STEREO_COUNT>
0

> <PUBCHEM_BOND_UDEF_STEREO_COUNT>
0

> <PUBCHEM_ISOTOPIC_ATOM_COUNT>
0

> <PUBCHEM_COMPONENT_COUNT>
1

> <PUBCHEM_CACTVS_TAUTO_COUNT>
9

> <PUBCHEM_CONFORMER_ID>
0712A79D00000009

> <PUBCHEM_MMFF94_ENERGY>
82.9283

> <PUBCHEM_FEATURE_SELFOVERLAP>
55.823

> <PUBCHEM_SHAPE_FINGERPRINT>
10 15 15213021574624953821
10595046 47 18343860013931077221
10912923 1 17418382363290341739
11135609 127 18270104816325767629
11135609 149 17974546028087877614
12107698 1 18337105645065751844
12236239 1 17632573834198874639
12788726 201 16128657457556039419
13533116 47 17989201516952166678
13617811 41 15410891869013380481
14068700 675 17701261326852024142
14170010 4 18413105044825490254
15183329 4 17275386500106887233
15348495 7 16660927789140032737
17844677 252 18339645525479205069
18222031 100 14692565525028901505
19319366 153 18131340912893307710
20157964 124 18409446985754086526
20554085 129 17702649091093759064
21033648 29 17458636647834741122
21150785 3 18271517698242883893
21859007 373 14275109482840648079
22149856 69 18131639989262909259
23081809 10 17703790297989587845
23522609 53 17632035104020191057
23559900 14 17023478459986522190
3004659 81 17988640749069069766
32027 91 18189623747959842834
34797466 226 18334574646950914109
3633792 109 18201434723692611303
4093350 32 18408884019064037573
46194498 28 18337669720237489990
504579 68 17775576324712415997
5104073 3 16660645206119866889

> <PUBCHEM_SHAPE_MULTIPOLES>
536.4
16.48
2.45
2.09
15.65
0.31
1.34
-5.27
-3.55
-5.9
-0.98
2.16
0.58
1.36

> <PUBCHEM_SHAPE_SELFOVERLAP>
1160.909

> <PUBCHEM_SHAPE_VOLUME>
296.8

> <PUBCHEM_COORDINATE_TYPE>
2
5
10

$$$$
118663051
  -OEChem-05102415143D

 46 48  0     0  0  0  0  0  0999 V2000
    5.1300   -3.0142   -1.2410 F   0  0  0  0  0  0  0  0  0  0  0  0
    3.8156   -3.3713    0.4467 F   0  0  0  0  0  0  0  0  0  0  0  0
    5.8480   -2.6756    0.7832 F   0  0  0  0  0  0  0  0  0  0  0  0
   -2.0934   -1.6426    0.5269 O   0  0  0  0  0  0  0  0  0  0  0  0
   -0.4211    3.8902   -0.7090 O   0  0  0  0  0  0  0  0  0  0  0  0
    0.7645    2.5049    0.7236 N   0  0  0  0  0  0  0  0  0  0  0  0
   -6.5181   -1.8782   -0.5600 N   0  0  0  0  0  0  0  0  0  0  0  0
   -6.3367   -2.2733    0.7118 N   0  0  0  0  0  0  0  0  0  0  0  0
    2.9817    2.9968   -0.2539 C   0  0  0  0  0  0  0  0  0  0  0  0
    1.9463    3.3319    0.8168 C   0  0  0  0  0  0  0  0  0  0  0  0
    3.4459    1.5622   -0.1952 C   0  0  0  0  0  0  0  0  0  0  0  0
   -1.4784    1.9160   -0.0142 C   0  0  0  0  0  0  0  0  0  0  0  0
   -3.6304    0.1415    0.0444 C   0  0  0  0  0  0  0  0  0  0  0  0
    2.7746    0.5813   -0.9253 C   0  0  0  0  0  0  0  0  0  0  0  0
    4.5461    1.2168    0.5899 C   0  0  0  0  0  0  0  0  0  0  0  0
   -0.3572    2.8417   -0.0430 C   0  0  0  0  0  0  0  0  0  0  0  0
   -2.3355   -0.3246    0.2733 C   0  0  0  0  0  0  0  0  0  0  0  0
   -1.2596    0.5627    0.2439 C   0  0  0  0  0  0  0  0  0  0  0  0
    4.3032   -1.0904   -0.0848 C   0  0  0  0  0  0  0  0  0  0  0  0
   -2.7732    2.3820   -0.2431 C   0  0  0  0  0  0  0  0  0  0  0  0
   -3.8490    1.4947   -0.2141 C   0  0  0  0  0  0  0  0  0  0  0  0
   -4.7540   -0.7557    0.0718 C   0  0  0  0  0  0  0  0  0  0  0  0
    3.2033   -0.7449   -0.8702 C   0  0  0  0  0  0  0  0  0  0  0  0
    4.9746   -0.1095    0.6452 C   0  0  0  0  0  0  0  0  0  0  0  0
    4.7624   -2.5081   -0.0268 C   0  0  0  0  0  0  0  0  0  0  0  0
   -5.5967   -0.9697   -0.9916 C   0  0  0  0  0  0  0  0  0  0  0  0
   -5.2576   -1.5843    1.0924 C   0  0  0  0  0  0  0  0  0  0  0  0
   -1.8352   -2.4802   -0.5976 C   0  0  0  0  0  0  0  0  0  0  0  0
    2.5682    3.1993   -1.2506 H   0  0  0  0  0  0  0  0  0  0  0  0
    3.8452    3.6654   -0.1483 H   0  0  0  0  0  0  0  0  0  0  0  0
    2.3640    3.1794    1.8182 H   0  0  0  0  0  0  0  0  0  0  0  0
    1.6538    4.3840    0.7312 H   0  0  0  0  0  0  0  0  0  0  0  0
    0.7551    1.6712    1.3011 H   0  0  0  0  0  0  0  0  0  0  0  0
    1.9178    0.8364   -1.5432 H   0  0  0  0  0  0  0  0  0  0  0  0
    5.0758    1.9720    1.1645 H   0  0  0  0  0  0  0  0  0  0  0  0
   -0.2626    0.1596    0.3976 H   0  0  0  0  0  0  0  0  0  0  0  0
   -2.9655    3.4334   -0.4404 H   0  0  0  0  0  0  0  0  0  0  0  0
   -4.8507    1.8805   -0.3896 H   0  0  0  0  0  0  0  0  0  0  0  0
    2.6738   -1.5020   -1.4425 H   0  0  0  0  0  0  0  0  0  0  0  0
    5.8331   -0.3577    1.2631 H   0  0  0  0  0  0  0  0  0  0  0  0
   -5.6282   -0.5718   -1.9965 H   0  0  0  0  0  0  0  0  0  0  0  0
   -4.8867   -1.7172    2.0990 H   0  0  0  0  0  0  0  0  0  0  0  0
   -7.2940   -2.2707   -1.0784 H   0  0  0  0  0  0  0  0  0  0  0  0
   -1.7173   -3.5066   -0.2394 H   0  0  0  0  0  0  0  0  0  0  0  0
   -2.6662   -2.4526   -1.3090 H   0  0  0  0  0  0  0  0  0  0  0  0
   -0.9082   -2.1754   -1.0938 H   0  0  0  0  0  0  0  0  0  0  0  0
  1 25  1  0  0  0  0
  2 25  1  0  0  0  0
  3 25  1  0  0  0  0
  4 17  1  0  0  0  0
  4 28  1  0  0  0  0
  5 16  2  0  0  0  0
  6 10  1  0  0  0  0
  6 16  1  0  0  0  0
  6 33  1  0  0  0  0
  7  8  1  0  0  0  0
  7 26  1  0  0  0  0
  7 43  1  0  0  0  0
  8 27  2  0  0  0  0
  9 10  1  0  0  0  0
  9 11  1  0  0  0  0
  9 29  1  0  0  0  0
  9 30  1  0  0  0  0
 10 31  1  0  0  0  0
 10 32  1  0  0  0  0
 11 14  2  0  0  0  0
 11 15  1  0  0  0  0
 12 16  1  0  0  0  0
 12 18  2  0  0  0  0
 12 20  1  0  0  0  0
 13 17  2  0  0  0  0
 13 21  1  0  0  0  0
 13 22  1  0  0  0  0
 14 23  1  0  0  0  0
 14 34  1  0  0  0  0
 15 24  2  0  0  0  0
 15 35  1  0  0  0  0
 17 18  1  0  0  0  0
 18 36  1  0  0  0  0
 19 23  2  0  0  0  0
 19 24  1  0  0  0  0
 19 25  1  0  0  0  0
 20 21  2  0  0  0  0
 20 37  1  0  0  0  0
 21 38  1  0  0  0  0
 22 26  2  0  0  0  0
 22 27  1  0  0  0  0
 23 39  1  0  0  0  0
 24 40  1  0  0  0  0
 26 41  1  0  0  0  0
 27 42  1  0  0  0  0
 28 44  1  0  0  0  0
 28 45  1  0  0  0  0
 28 46  1  0  0  0  0
M  END
> <PUBCHEM_COMPOUND_CID>
118663051

> <PUBCHEM_CONFORMER_RMSD>
1

> <PUBCHEM_CONFORMER_DIVERSEORDER>
1
16
11
6
14
4
12
13
7
5
15
18
8
10
17
3
2
9

> <PUBCHEM_MMFF94_PARTIAL_CHARGES>
39
1 -0.34
10 0.3
11 -0.14
12 0.09
13 0.05
14 -0.15
15 -0.15
16 0.54
17 0.08
18 -0.15
19 -0.14
2 -0.34
20 -0.15
21 -0.15
22 -0.05
23 -0.15
24 -0.15
25 1.16
26 -0.3
27 0.14
28 0.28
3 -0.34
33 0.37
34 0.15
35 0.15
36 0.15
37 0.15
38 0.15
39 0.15
4 -0.36
40 0.15
41 0.15
42 0.15
43 0.27
5 -0.57
6 -0.73
7 0.3
8 -0.71
9 0.14

> <PUBCHEM_EFFECTIVE_ROTOR_COUNT>
8

> <PUBCHEM_PHARMACOPHORE_FEATURES>
8
1 4 acceptor
1 5 acceptor
1 6 donor
1 7 donor
1 8 acceptor
5 7 8 22 26 27 rings
6 11 14 15 19 23 24 rings
6 12 13 17 18 20 21 rings

> <PUBCHEM_HEAVY_ATOM_COUNT>
28

> <PUBCHEM_ATOM_DEF_STEREO_COUNT>
0

> <PUBCHEM_ATOM_UDEF_STEREO_COUNT>
0

> <PUBCHEM_BOND_DEF_STEREO_COUNT>
0

> <PUBCHEM_BOND_UDEF_STEREO_COUNT>
0

> <PUBCHEM_ISOTOPIC_ATOM_COUNT>
0

> <PUBCHEM_COMPONENT_COUNT>
1

> <PUBCHEM_CACTVS_TAUTO_COUNT>
18

> <PUBCHEM_CONFORMER_ID>
0712A78B00000001

> <PUBCHEM_MMFF94_ENERGY>
69.9932

> <PUBCHEM_FEATURE_SELFOVERLAP>
40.597

> <PUBCHEM_SHAPE_FINGERPRINT>
10693767 8 18198325446891952167
11088757 655 18190164712734616842
11135926 11 18122052363421629340
11409948 41 18055896922738688039
11963148 33 18193550297255892326
12107183 9 18199765665163818177
12166972 35 17967540064195838542
12422481 6 17703517610252240783
12633257 1 18127142874545525420
12645989 146 18343304726047175974
13533116 47 18411139185804937719
13551218 46 18340770433517302459
1361 87 17895494599056202147
13911852 28 18411980273830609509
13955234 65 18056194923599767729
13989917 61 18266463302666100907
14347332 77 18413386562430373705
14429380 30 18336547106307942114
14617045 38 18195537105939744925
14866123 147 18124600786725227865
15352361 1 18339079290086811496
17492 89 18338234865225030440
20775530 9 18342735179197105788
21033650 10 16515675599062610837
21279426 13 18333724711646521045
21682296 61 18410014368936910811
23559900 14 18338228267797067828
23569914 152 17907542906735775237
24771750 20 16958458011308510541
3004659 81 18113615724791476812
3421961 26 18340768251168196216
345986 75 17704081710940932177
34797466 226 16371571548105517349
3680242 22 18342186574170832547
44062 13 18264208006690611709
46194498 28 17749384931658749124
463206 1 18055069032487652045
50009960 94 18116689882151687402
5104073 3 18202285775262006945
5309563 4 18341051822320555534
6201320 77 17025754440824443787
6433294 58 18339644546347792152

> <PUBCHEM_SHAPE_MULTIPOLES>
527.72
15.18
4.64
0.94
6.5
0.74
0.03
-14.04
-0.65
-3.95
0.04
-0.02
-0.18
0.63

> <PUBCHEM_SHAPE_SELFOVERLAP>
1145.285

> <PUBCHEM_SHAPE_VOLUME>
290.2

> <PUBCHEM_COORDINATE_TYPE>
2
5
10

$$$$
90178103
  -OEChem-05102415143D

 43 45  0     0  0  0  0  0  0999 V2000
   -2.1520   -1.4035   -1.3150 O   0  0  0  0  0  0  0  0  0  0  0  0
    1.7547    2.3708    0.9955 O   0  0  0  0  0  0  0  0  0  0  0  0
    1.9827    1.4739   -1.1307 N   0  0  0  0  0  0  0  0  0  0  0  0
   -6.2809   -0.0858    0.4943 N   0  0  0  0  0  0  0  0  0  0  0  0
   -5.9932   -1.3825    0.2890 N   0  0  0  0  0  0  0  0  0  0  0  0
    4.2776    0.6609   -1.5623 C   0  0  0  0  0  0  0  0  0  0  0  0
    3.3615    1.8597   -1.3285 C   0  0  0  0  0  0  0  0  0  0  0  0
   -2.7459    0.3635    0.2024 C   0  0  0  0  0  0  0  0  0  0  0  0
   -0.1135    1.2806    0.0901 C   0  0  0  0  0  0  0  0  0  0  0  0
    4.2588   -0.3255   -0.4205 C   0  0  0  0  0  0  0  0  0  0  0  0
   -1.8084   -0.3025   -0.5872 C   0  0  0  0  0  0  0  0  0  0  0  0
    1.2590    1.7578    0.0333 C   0  0  0  0  0  0  0  0  0  0  0  0
   -0.4922    0.1561   -0.6433 C   0  0  0  0  0  0  0  0  0  0  0  0
   -2.3672    1.4882    0.9355 C   0  0  0  0  0  0  0  0  0  0  0  0
   -1.0511    1.9466    0.8796 C   0  0  0  0  0  0  0  0  0  0  0  0
   -4.1076   -0.0933    0.2760 C   0  0  0  0  0  0  0  0  0  0  0  0
    5.1610   -0.1884    0.6344 C   0  0  0  0  0  0  0  0  0  0  0  0
    3.3394   -1.3746   -0.4203 C   0  0  0  0  0  0  0  0  0  0  0  0
   -5.1863    0.7281    0.4955 C   0  0  0  0  0  0  0  0  0  0  0  0
   -4.6641   -1.3809    0.1565 C   0  0  0  0  0  0  0  0  0  0  0  0
    5.1437   -1.1003    1.6899 C   0  0  0  0  0  0  0  0  0  0  0  0
    3.3221   -2.2865    0.6353 C   0  0  0  0  0  0  0  0  0  0  0  0
    4.2241   -2.1492    1.6904 C   0  0  0  0  0  0  0  0  0  0  0  0
   -1.1223   -2.0131   -2.0901 C   0  0  0  0  0  0  0  0  0  0  0  0
    3.9835    0.1440   -2.4854 H   0  0  0  0  0  0  0  0  0  0  0  0
    5.3037    1.0106   -1.7309 H   0  0  0  0  0  0  0  0  0  0  0  0
    3.7117    2.4439   -0.4708 H   0  0  0  0  0  0  0  0  0  0  0  0
    3.3851    2.5150   -2.2057 H   0  0  0  0  0  0  0  0  0  0  0  0
    1.5194    1.0484   -1.9265 H   0  0  0  0  0  0  0  0  0  0  0  0
    0.2691   -0.3601   -1.2132 H   0  0  0  0  0  0  0  0  0  0  0  0
   -3.0658    2.0250    1.5724 H   0  0  0  0  0  0  0  0  0  0  0  0
   -0.7756    2.8251    1.4575 H   0  0  0  0  0  0  0  0  0  0  0  0
    5.8806    0.6259    0.6462 H   0  0  0  0  0  0  0  0  0  0  0  0
    2.6339   -1.4964   -1.2378 H   0  0  0  0  0  0  0  0  0  0  0  0
   -5.2900    1.7943    0.6426 H   0  0  0  0  0  0  0  0  0  0  0  0
   -4.1711   -2.3284   -0.0081 H   0  0  0  0  0  0  0  0  0  0  0  0
    5.8456   -0.9932    2.5118 H   0  0  0  0  0  0  0  0  0  0  0  0
    2.6064   -3.1034    0.6352 H   0  0  0  0  0  0  0  0  0  0  0  0
    4.2104   -2.8590    2.5123 H   0  0  0  0  0  0  0  0  0  0  0  0
   -7.2501    0.1758    0.6248 H   0  0  0  0  0  0  0  0  0  0  0  0
   -0.7433   -1.3390   -2.8661 H   0  0  0  0  0  0  0  0  0  0  0  0
   -0.3255   -2.4200   -1.4577 H   0  0  0  0  0  0  0  0  0  0  0  0
   -1.5750   -2.8646   -2.6091 H   0  0  0  0  0  0  0  0  0  0  0  0
  1 11  1  0  0  0  0
  1 24  1  0  0  0  0
  2 12  2  0  0  0  0
  3  7  1  0  0  0  0
  3 12  1  0  0  0  0
  3 29  1  0  0  0  0
  4  5  1  0  0  0  0
  4 19  1  0  0  0  0
  4 40  1  0  0  0  0
  5 20  2  0  0  0  0
  6  7  1  0  0  0  0
  6 10  1  0  0  0  0
  6 25  1  0  0  0  0
  6 26  1  0  0  0  0
  7 27  1  0  0  0  0
  7 28  1  0  0  0  0
  8 11  2  0  0  0  0
  8 14  1  0  0  0  0
  8 16  1  0  0  0  0
  9 12  1  0  0  0  0
  9 13  2  0  0  0  0
  9 15  1  0  0  0  0
 10 17  2  0  0  0  0
 10 18  1  0  0  0  0
 11 13  1  0  0  0  0
 13 30  1  0  0  0  0
 14 15  2  0  0  0  0
 14 31  1  0  0  0  0
 15 32  1  0  0  0  0
 16 19  2  0  0  0  0
 16 20  1  0  0  0  0
 17 21  1  0  0  0  0
 17 33  1  0  0  0  0
 18 22  2  0  0  0  0
 18 34  1  0  0  0  0
 19 35  1  0  0  0  0
 20 36  1  0  0  0  0
 21 23  2  0  0  0  0
 21 37  1  0  0  0  0
 22 23  1  0  0  0  0
 22 38  1  0  0  0  0
 23 39  1  0  0  0  0
 24 41  1  0  0  0  0
 24 42  1  0  0  0  0
 24 43  1  0  0  0  0
M  END
> <PUBCHEM_COMPOUND_CID>
90178103

> <PUBCHEM_CONFORMER_RMSD>
0.8

> <PUBCHEM_CONFORMER_DIVERSEORDER>
17
7
19
37
27
6
1
29
20
18
31
14
38
39
22
16
41
35
40
9
2
11
12
13
30
26
34
10
28
25
21
32
8
3
15
23
33
24
4
5
36

> <PUBCHEM_MMFF94_PARTIAL_CHARGES>
36
1 -0.36
10 -0.14
11 0.08
12 0.54
13 -0.15
14 -0.15
15 -0.15
16 -0.05
17 -0.15
18 -0.15
19 -0.3
2 -0.57
20 0.14
21 -0.15
22 -0.15
23 -0.15
24 0.28
29 0.37
3 -0.73
30 0.15
31 0.15
32 0.15
33 0.15
34 0.15
35 0.15
36 0.15
37 0.15
38 0.15
39 0.15
4 0.3
40 0.27
5 -0.71
6 0.14
7 0.3
8 0.05
9 0.09

> <PUBCHEM_EFFECTIVE_ROTOR_COUNT>
7

> <PUBCHEM_PHARMACOPHORE_FEATURES>
8
1 1 acceptor
1 2 acceptor
1 3 donor
1 4 donor
1 5 acceptor
5 4 5 16 19 20 rings
6 10 17 18 21 22 23 rings
6 8 9 11 13 14 15 rings

> <PUBCHEM_HEAVY_ATOM_COUNT>
24

> <PUBCHEM_ATOM_DEF_STEREO_COUNT>
0

> <PUBCHEM_ATOM_UDEF_STEREO_COUNT>
0

> <PUBCHEM_BOND_DEF_STEREO_COUNT>
0

> <PUBCHEM_BOND_UDEF_STEREO_COUNT>
0

> <PUBCHEM_ISOTOPIC_ATOM_COUNT>
0

> <PUBCHEM_COMPONENT_COUNT>
1

> <PUBCHEM_CACTVS_TAUTO_COUNT>
7

> <PUBCHEM_CONFORMER_ID>
0560023700000011

> <PUBCHEM_MMFF94_ENERGY>
66.8928

> <PUBCHEM_FEATURE_SELFOVERLAP>
40.597

> <PUBCHEM_SHAPE_FINGERPRINT>
11578080 2 18192684844683142956
11796584 16 18340780303030389103
12107183 9 17829894235208392537
12166972 35 17096085780322258394
12236239 1 18410017628347577108
12422481 6 18126581015687701937
12553582 1 18201715154828836388
12596602 18 17988926669426141680
12633257 1 16844706695699884450
12788726 201 18130241401149168560
12839892 36 18130792213915083071
13533116 47 18259989288027840064
14251740 57 18269840822525165702
14347332 77 18186518783305230765
14705955 166 15913054153671978314
14910302 57 16515680069669228803
15183329 4 18336272267103221997
15250474 111 18337949116503399967
15537594 2 18410294726953118870
16992610 120 18191031313235772452
17349148 13 17489873747790115133
17492 89 18046339735261717954
17857418 61 18408604760153210657
1813 80 18113901533316232524
1979834 28 17775570805859172214
20369508 70 18343586269658583504
20567600 234 14692279668985225537
20567600 247 18186799209940403011
20626108 58 18114174182536089480
20645477 70 17385724695208829172
21033648 29 15769490915895393232
21421861 104 18343014541008066344
21859007 373 18270104722401145377
23366157 5 17910384318948691721
23559900 14 18115312318293198249
3004659 81 18410022039189417012
339767 52 18340195319884313018
3411729 13 17559947909004589528
345986 75 18339073779432716360
3680242 22 18334298621607811426
397830 11 13326571917313073511
4072396 5 18131355181143156685
4098825 35 17095239190348496300
46194498 28 16153712042103280302
463206 1 18336825406813158850
465052 167 18340216262255657095
5104073 3 17987525969428110155
7970288 3 17825100412109883930
8509985 295 18343868813770427501

> <PUBCHEM_SHAPE_MULTIPOLES>
467.23
13.48
2.49
1.54
7.64
0.02
-0.32
5.44
3.55
-1.51
0.16
-1.39
0.39
-2.21

> <PUBCHEM_SHAPE_SELFOVERLAP>
1012.643

> <PUBCHEM_SHAPE_VOLUME>
256.1

> <PUBCHEM_COORDINATE_TYPE>
2
5
10

$$$$
118662898
  -OEChem-05102415143D

 43 46  0     0  0  0  0  0  0999 V2000
   -6.6766   -1.6593    1.4382 S   0  0  0  0  0  0  0  0  0  0  0  0
    4.1834    1.8955    0.6312 O   0  0  0  0  0  0  0  0  0  0  0  0
   -0.8150    2.0989   -0.1734 O   0  0  0  0  0  0  0  0  0  0  0  0
   -1.1467    0.3896   -1.7056 N   0  0  0  0  0  0  0  0  0  0  0  0
    6.8145   -1.7690   -0.0494 N   0  0  0  0  0  0  0  0  0  0  0  0
    6.8358   -1.4241    1.2494 N   0  0  0  0  0  0  0  0  0  0  0  0
   -3.5211    0.1098   -1.2382 C   0  0  0  0  0  0  0  0  0  0  0  0
   -2.4841    0.7627   -2.0897 C   0  0  0  0  0  0  0  0  0  0  0  0
   -5.1675    0.2475    0.5592 C   0  0  0  0  0  0  0  0  0  0  0  0
   -4.1818    0.8535   -0.2569 C   0  0  0  0  0  0  0  0  0  0  0  0
    3.5401   -0.3340    0.0040 C   0  0  0  0  0  0  0  0  0  0  0  0
    0.9608    0.6025   -0.4989 C   0  0  0  0  0  0  0  0  0  0  0  0
   -5.4556   -1.1053    0.3537 C   0  0  0  0  0  0  0  0  0  0  0  0
   -3.8240   -1.2316   -1.4231 C   0  0  0  0  0  0  0  0  0  0  0  0
    3.2373    1.0138    0.1978 C   0  0  0  0  0  0  0  0  0  0  0  0
   -4.7913   -1.8579   -0.6347 C   0  0  0  0  0  0  0  0  0  0  0  0
   -0.4134    1.1003   -0.7651 C   0  0  0  0  0  0  0  0  0  0  0  0
    1.9476    1.4820   -0.0537 C   0  0  0  0  0  0  0  0  0  0  0  0
    2.5534   -1.2135   -0.4415 C   0  0  0  0  0  0  0  0  0  0  0  0
    1.2636   -0.7454   -0.6929 C   0  0  0  0  0  0  0  0  0  0  0  0
    4.8628   -0.8380    0.2589 C   0  0  0  0  0  0  0  0  0  0  0  0
   -5.9698    0.7947    1.6163 C   0  0  0  0  0  0  0  0  0  0  0  0
   -6.8237   -0.1280    2.1722 C   0  0  0  0  0  0  0  0  0  0  0  0
    5.6550   -1.4399   -0.6880 C   0  0  0  0  0  0  0  0  0  0  0  0
    5.6409   -0.8559    1.4319 C   0  0  0  0  0  0  0  0  0  0  0  0
    3.7751    3.2512    0.7984 C   0  0  0  0  0  0  0  0  0  0  0  0
   -2.6209    0.4701   -3.1374 H   0  0  0  0  0  0  0  0  0  0  0  0
   -2.5770    1.8547   -2.0559 H   0  0  0  0  0  0  0  0  0  0  0  0
   -3.9430    1.9045   -0.1106 H   0  0  0  0  0  0  0  0  0  0  0  0
   -3.3112   -1.8133   -2.1855 H   0  0  0  0  0  0  0  0  0  0  0  0
   -0.7356   -0.3964   -2.1974 H   0  0  0  0  0  0  0  0  0  0  0  0
    1.6581    2.5193    0.0730 H   0  0  0  0  0  0  0  0  0  0  0  0
   -5.0220   -2.9085   -0.7867 H   0  0  0  0  0  0  0  0  0  0  0  0
    2.7649   -2.2703   -0.5879 H   0  0  0  0  0  0  0  0  0  0  0  0
    0.5177   -1.4699   -1.0057 H   0  0  0  0  0  0  0  0  0  0  0  0
   -5.9179    1.8237    1.9500 H   0  0  0  0  0  0  0  0  0  0  0  0
   -7.5277    0.0286    2.9773 H   0  0  0  0  0  0  0  0  0  0  0  0
    5.5090   -1.6608   -1.7364 H   0  0  0  0  0  0  0  0  0  0  0  0
    5.3906   -0.4802    2.4141 H   0  0  0  0  0  0  0  0  0  0  0  0
    7.6291   -2.2280   -0.4374 H   0  0  0  0  0  0  0  0  0  0  0  0
    3.4748    3.7046   -0.1525 H   0  0  0  0  0  0  0  0  0  0  0  0
    3.0079    3.3513    1.5738 H   0  0  0  0  0  0  0  0  0  0  0  0
    4.6505    3.8081    1.1492 H   0  0  0  0  0  0  0  0  0  0  0  0
  1 13  1  0  0  0  0
  1 23  1  0  0  0  0
  2 15  1  0  0  0  0
  2 26  1  0  0  0  0
  3 17  2  0  0  0  0
  4  8  1  0  0  0  0
  4 17  1  0  0  0  0
  4 31  1  0  0  0  0
  5  6  1  0  0  0  0
  5 24  1  0  0  0  0
  5 40  1  0  0  0  0
  6 25  2  0  0  0  0
  7  8  1  0  0  0  0
  7 10  2  0  0  0  0
  7 14  1  0  0  0  0
  8 27  1  0  0  0  0
  8 28  1  0  0  0  0
  9 10  1  0  0  0  0
  9 13  2  0  0  0  0
  9 22  1  0  0  0  0
 10 29  1  0  0  0  0
 11 15  2  0  0  0  0
 11 19  1  0  0  0  0
 11 21  1  0  0  0  0
 12 17  1  0  0  0  0
 12 18  2  0  0  0  0
 12 20  1  0  0  0  0
 13 16  1  0  0  0  0
 14 16  2  0  0  0  0
 14 30  1  0  0  0  0
 15 18  1  0  0  0  0
 16 33  1  0  0  0  0
 18 32  1  0  0  0  0
 19 20  2  0  0  0  0
 19 34  1  0  0  0  0
 20 35  1  0  0  0  0
 21 24  2  0  0  0  0
 21 25  1  0  0  0  0
 22 23  2  0  0  0  0
 22 36  1  0  0  0  0
 23 37  1  0  0  0  0
 24 38  1  0  0  0  0
 25 39  1  0  0  0  0
 26 41  1  0  0  0  0
 26 42  1  0  0  0  0
 26 43  1  0  0  0  0
M  END
> <PUBCHEM_COMPOUND_CID>
118662898

> <PUBCHEM_CONFORMER_RMSD>
0.8

> <PUBCHEM_CONFORMER_DIVERSEORDER>
7
24
48
30
19
56
51
2
52
26
18
28
44
55
40
46
41
43
45
17
47
29
49
33
9
27
8
22
50
4
31
39
32
54
35
12
42
20
11
37
53
21
5
3
25
15
10
34
23
6
1
13
38
36
14
16

> <PUBCHEM_MMFF94_PARTIAL_CHARGES>
37
1 -0.08
10 -0.15
11 0.05
12 0.09
13 0.04
14 -0.15
15 0.08
16 -0.15
17 0.54
18 -0.15
19 -0.15
2 -0.36
20 -0.15
21 -0.05
22 -0.15
23 -0.11
24 -0.3
25 0.14
26 0.28
29 0.15
3 -0.57
30 0.15
31 0.37
32 0.15
33 0.15
34 0.15
35 0.15
36 0.15
37 0.15
38 0.15
39 0.15
4 -0.73
40 0.27
5 0.3
6 -0.71
7 -0.14
8 0.44

> <PUBCHEM_EFFECTIVE_ROTOR_COUNT>
6

> <PUBCHEM_PHARMACOPHORE_FEATURES>
9
1 2 acceptor
1 3 acceptor
1 4 donor
1 5 donor
1 6 acceptor
5 1 9 13 22 23 rings
5 5 6 21 24 25 rings
6 11 12 15 18 19 20 rings
6 7 9 10 13 14 16 rings

> <PUBCHEM_HEAVY_ATOM_COUNT>
26

> <PUBCHEM_ATOM_DEF_STEREO_COUNT>
0

> <PUBCHEM_ATOM_UDEF_STEREO_COUNT>
0

> <PUBCHEM_BOND_DEF_STEREO_COUNT>
0

> <PUBCHEM_BOND_UDEF_STEREO_COUNT>
0

> <PUBCHEM_ISOTOPIC_ATOM_COUNT>
0

> <PUBCHEM_COMPONENT_COUNT>
1

> <PUBCHEM_CACTVS_TAUTO_COUNT>
9

> <PUBCHEM_CONFORMER_ID>
0712A6F200000007

> <PUBCHEM_MMFF94_ENERGY>
69.9121

> <PUBCHEM_FEATURE_SELFOVERLAP>
45.732

> <PUBCHEM_SHAPE_FINGERPRINT>
10076449 9 18113908143808802102
10693767 8 13046488810839038712
11545043 162 18040986311312808220
12107183 9 18060143111346593115
12166972 35 17095250219586927636
12422481 6 17846499209876237453
12539765 74 15194996211818033636
12596602 18 18272377507666671075
12616971 3 17988920093488599037
12778500 126 15410897319548477302
13103583 49 18202285827344465287
13668630 136 15574720192167541427
13673619 4 17967816046062377661
13690498 29 15430034362405894359
13782708 43 17749381534428937378
14251764 30 17530686519848544363
14849402 71 18271804696379459704
14950920 106 18343301500699815755
15142383 8 15697998505742720674
15183329 4 17167863058312444194
15238133 3 16415480475782170184
15348495 7 18341895233638340907
15352257 5 17603872190930713187
15475509 35 17604134957889206274
15510800 12 16878800425817137443
16110190 28 18130790083616364551
16112460 7 18339929319453360530
17780758 139 18343301453623954355
17844677 252 18410007732484886845
19958102 18 13623531233818771760
20028762 73 18272360997438793862
21065198 48 17988361585190601885
21150785 3 14201404880460865526
21267235 1 18341612574052568262
21307412 95 15069195614717082851
21403212 168 18271249323248598539
21585481 104 9006519160683948387
2260408 40 17275109405880429958
2303208 19 17967245403643031524
23081809 10 17632290228639102973
23522609 53 18191053190237546532
249057 25 16916489463228213621
2748736 6 12175620672264506339
2838139 119 11312051037427985827
3004659 81 15140683605068760143
312425 54 18336551607438540707
3178227 256 18411700972503002650
3663271 9 18059292183704028531
3737641 26 18262800636255136271
392239 28 18413105069777733359
393628 194 12679465296573640731
4093350 32 16917071110049928316
465052 167 18334856096274060294
5104073 3 18059005206636834851
58083652 198 18341600556069844821
59682541 52 8574447408203833705
6009941 240 18041560231504422069
7226269 152 14405182863552349579
7495541 125 18260540113852821020
8863177 126 18186802521307414522
999808 66 18113620062297106035

> <PUBCHEM_SHAPE_MULTIPOLES>
512.24
20.15
2.3
1.69
1.27
1.06
-0.07
-9.81
-10.96
-2.42
-0.38
2.33
-0.05
0.3

> <PUBCHEM_SHAPE_SELFOVERLAP>
1121.858

> <PUBCHEM_SHAPE_VOLUME>
279.8

> <PUBCHEM_COORDINATE_TYPE>
2
5
10

$$$$
118663088
  -OEChem-05102415143D

 43 45  0     0  0  0  0  0  0999 V2000
   -6.1264   -1.7924    1.4453 F   0  0  0  0  0  0  0  0  0  0  0  0
    4.2880    2.0419    0.1739 O   0  0  0  0  0  0  0  0  0  0  0  0
   -0.7044    1.8626   -0.6725 O   0  0  0  0  0  0  0  0  0  0  0  0
   -5.8660    2.1789    0.6532 O   0  0  0  0  0  0  0  0  0  0  0  0
   -6.1347    0.7555    2.4047 O   0  0  0  0  0  0  0  0  0  0  0  0
   -0.9485   -0.1591   -1.7818 N   0  0  0  0  0  0  0  0  0  0  0  0
    6.9287   -1.8210    0.5776 N   0  0  0  0  0  0  0  0  0  0  0  0
    7.1759   -0.7283    1.3202 N   0  0  0  0  0  0  0  0  0  0  0  0
    3.7368   -0.2950    0.0608 C   0  0  0  0  0  0  0  0  0  0  0  0
    1.1302    0.4024   -0.6481 C   0  0  0  0  0  0  0  0  0  0  0  0
   -2.2991    0.0657   -2.2447 C   0  0  0  0  0  0  0  0  0  0  0  0
   -3.3198   -0.4264   -1.2597 C   0  0  0  0  0  0  0  0  0  0  0  0
    3.3811    1.0490   -0.0538 C   0  0  0  0  0  0  0  0  0  0  0  0
    2.0778    1.3976   -0.4083 C   0  0  0  0  0  0  0  0  0  0  0  0
    5.0743   -0.6766    0.4267 C   0  0  0  0  0  0  0  0  0  0  0  0
    2.7893   -1.2902   -0.1793 C   0  0  0  0  0  0  0  0  0  0  0  0
    1.4860   -0.9415   -0.5335 C   0  0  0  0  0  0  0  0  0  0  0  0
   -0.2290    0.7657   -1.0158 C   0  0  0  0  0  0  0  0  0  0  0  0
   -4.0211    0.4834   -0.4682 C   0  0  0  0  0  0  0  0  0  0  0  0
   -3.5673   -1.7937   -1.1367 C   0  0  0  0  0  0  0  0  0  0  0  0
   -4.9696    0.0257    0.4465 C   0  0  0  0  0  0  0  0  0  0  0  0
    5.6838   -1.8384    0.0204 C   0  0  0  0  0  0  0  0  0  0  0  0
   -4.5156   -2.2512   -0.2219 C   0  0  0  0  0  0  0  0  0  0  0  0
    6.0394   -0.0331    1.2243 C   0  0  0  0  0  0  0  0  0  0  0  0
   -5.2169   -1.3415    0.5697 C   0  0  0  0  0  0  0  0  0  0  0  0
   -5.6995    0.9767    1.2698 C   0  0  0  0  0  0  0  0  0  0  0  0
    3.8269    3.3834    0.0312 C   0  0  0  0  0  0  0  0  0  0  0  0
   -2.4158   -0.4609   -3.1989 H   0  0  0  0  0  0  0  0  0  0  0  0
   -2.4354    1.1336   -2.4512 H   0  0  0  0  0  0  0  0  0  0  0  0
    1.7486    2.4251   -0.5182 H   0  0  0  0  0  0  0  0  0  0  0  0
    3.0239   -2.3469   -0.0786 H   0  0  0  0  0  0  0  0  0  0  0  0
    0.7716   -1.7470   -0.6761 H   0  0  0  0  0  0  0  0  0  0  0  0
   -0.5086   -1.0209   -2.0861 H   0  0  0  0  0  0  0  0  0  0  0  0
   -3.8083    1.5453   -0.5658 H   0  0  0  0  0  0  0  0  0  0  0  0
   -3.0271   -2.5118   -1.7480 H   0  0  0  0  0  0  0  0  0  0  0  0
    5.3695   -2.6622   -0.6058 H   0  0  0  0  0  0  0  0  0  0  0  0
   -4.7084   -3.3156   -0.1257 H   0  0  0  0  0  0  0  0  0  0  0  0
    5.9741    0.9052    1.7566 H   0  0  0  0  0  0  0  0  0  0  0  0
    7.6581   -2.5177    0.4915 H   0  0  0  0  0  0  0  0  0  0  0  0
    4.6764    4.0387    0.2510 H   0  0  0  0  0  0  0  0  0  0  0  0
    3.5214    3.6000   -0.9983 H   0  0  0  0  0  0  0  0  0  0  0  0
    3.0471    3.6245    0.7618 H   0  0  0  0  0  0  0  0  0  0  0  0
   -6.3588    2.8129    1.2167 H   0  0  0  0  0  0  0  0  0  0  0  0
  1 25  1  0  0  0  0
  2 13  1  0  0  0  0
  2 27  1  0  0  0  0
  3 18  2  0  0  0  0
  4 26  1  0  0  0  0
  4 43  1  0  0  0  0
  5 26  2  0  0  0  0
  6 11  1  0  0  0  0
  6 18  1  0  0  0  0
  6 33  1  0  0  0  0
  7  8  1  0  0  0  0
  7 22  1  0  0  0  0
  7 39  1  0  0  0  0
  8 24  2  0  0  0  0
  9 13  2  0  0  0  0
  9 15  1  0  0  0  0
  9 16  1  0  0  0  0
 10 14  2  0  0  0  0
 10 17  1  0  0  0  0
 10 18  1  0  0  0  0
 11 12  1  0  0  0  0
 11 28  1  0  0  0  0
 11 29  1  0  0  0  0
 12 19  2  0  0  0  0
 12 20  1  0  0  0  0
 13 14  1  0  0  0  0
 14 30  1  0  0  0  0
 15 22  2  0  0  0  0
 15 24  1  0  0  0  0
 16 17  2  0  0  0  0
 16 31  1  0  0  0  0
 17 32  1  0  0  0  0
 19 21  1  0  0  0  0
 19 34  1  0  0  0  0
 20 23  2  0  0  0  0
 20 35  1  0  0  0  0
 21 25  2  0  0  0  0
 21 26  1  0  0  0  0
 22 36  1  0  0  0  0
 23 25  1  0  0  0  0
 23 37  1  0  0  0  0
 24 38  1  0  0  0  0
 27 40  1  0  0  0  0
 27 41  1  0  0  0  0
 27 42  1  0  0  0  0
M  END
> <PUBCHEM_COMPOUND_CID>
118663088

> <PUBCHEM_CONFORMER_RMSD>
0.8

> <PUBCHEM_CONFORMER_DIVERSEORDER>
10
46
9
40
86
36
93
55
39
76
18
60
7
45
31
30
59
11
15
23
75
62
42
77
87
51
28
43
73
56
92
4
32
34
37
17
80
26
53
65
47
96
98
24
63
91
52
82
1
50
94
20
71
14
70
74
41
54
6
81
58
48
67
64
57
72
83
49
97
66
85
13
78
25
22
35
5
16
44
33
89
68
38
19
21
84
95
8
79
90
61
69
2
27
29
3
12
88

> <PUBCHEM_MMFF94_PARTIAL_CHARGES>
38
1 -0.19
10 0.09
11 0.44
12 -0.14
13 0.08
14 -0.15
15 -0.05
16 -0.15
17 -0.15
18 0.54
19 -0.15
2 -0.36
20 -0.15
21 0.09
22 -0.3
23 -0.15
24 0.14
25 0.19
26 0.63
27 0.28
3 -0.57
30 0.15
31 0.15
32 0.15
33 0.37
34 0.15
35 0.15
36 0.15
37 0.15
38 0.15
39 0.27
4 -0.65
43 0.5
5 -0.57
6 -0.73
7 0.3
8 -0.71
9 0.05

> <PUBCHEM_EFFECTIVE_ROTOR_COUNT>
7

> <PUBCHEM_PHARMACOPHORE_FEATURES>
11
1 2 acceptor
1 3 acceptor
1 4 acceptor
1 5 acceptor
1 6 donor
1 7 donor
1 8 acceptor
3 4 5 26 anion
5 7 8 15 22 24 rings
6 12 19 20 21 23 25 rings
6 9 10 13 14 16 17 rings

> <PUBCHEM_HEAVY_ATOM_COUNT>
27

> <PUBCHEM_ATOM_DEF_STEREO_COUNT>
0

> <PUBCHEM_ATOM_UDEF_STEREO_COUNT>
0

> <PUBCHEM_BOND_DEF_STEREO_COUNT>
0

> <PUBCHEM_BOND_UDEF_STEREO_COUNT>
0

> <PUBCHEM_ISOTOPIC_ATOM_COUNT>
0

> <PUBCHEM_COMPONENT_COUNT>
1

> <PUBCHEM_CACTVS_TAUTO_COUNT>
9

> <PUBCHEM_CONFORMER_ID>
0712A7B00000000A

> <PUBCHEM_MMFF94_ENERGY>
77.7174

> <PUBCHEM_FEATURE_SELFOVERLAP>
55.881

> <PUBCHEM_SHAPE_FINGERPRINT>
105312 117 14979959177311687285
10693767 8 11675420900862893256
11089746 13 16200137790445291341
11545043 162 17676756605038576564
12107183 9 18341897346815062881
12166972 35 16515407361348465430
12422481 6 18272933803935184948
12596602 18 18410859906099795705
12616971 3 18201996659722657572
13103583 49 18412548721447509055
13668630 136 14418137296501984714
13673619 4 17385724690170096380
13690498 29 12107794042974669491
13782708 43 17240752961768221906
14849402 71 18338515374056431608
14950920 106 18412260679386648939
15142383 8 17846212220746872896
15238133 3 17275386525507146432
15348495 7 18408604794381112681
15461852 350 16056586682263337637
15510800 12 16515978081172408795
16110190 28 18341895203494383583
17780758 139 18411698777610852643
17844677 252 18261106383093691677
18927931 339 16226042293592270719
21065198 48 18271245031858949445
21130935 74 18272925034287900798
21150785 3 12973894693396104962
21267235 1 18410851033283151590
21403212 168 18336549305905749209
21585481 104 10447386250692684019
22288116 15 10665238029114935697
2260408 40 17847064359675704102
2303208 19 17530676615516816500
23522609 53 18043839582874045820
249057 25 17632001065723686821
2748736 6 12391507598988553290
2838139 119 11959727178994503435
312425 54 18186803591028363697
3178227 256 18261109656744623890
3663271 9 18270399511237370712
3737641 26 17969217832945961579
392239 28 18407758140257517363
5104073 3 18341609368951911120
7226269 152 15554446305578906483
7495541 125 18040708174279566788
8863177 126 17967812799257096666
999808 66 17458346316609599234

> <PUBCHEM_SHAPE_MULTIPOLES>
509.95
19.38
2.5
1.55
3
1.12
0.05
-4.61
11.3
0.95
0.16
-2.2
0.03
-1.23

> <PUBCHEM_SHAPE_SELFOVERLAP>
1117.921

> <PUBCHEM_SHAPE_VOLUME>
276.7

> <PUBCHEM_COORDINATE_TYPE>
2
5
10

$$$$
118662976
  -OEChem-05102415143D

 48 50  0     1  0  0  0  0  0999 V2000
    1.3743   -2.2810    1.6401 O   0  0  0  0  0  0  0  0  0  0  0  0
   -2.3053    1.4319   -1.1187 O   0  0  0  0  0  0  0  0  0  0  0  0
    1.9224   -1.1919   -0.3319 N   0  0  0  0  0  0  0  0  0  0  0  0
    4.9248   -3.3293   -0.9168 N   0  0  0  0  0  0  0  0  0  0  0  0
   -6.4725    0.4605    0.4642 N   0  0  0  0  0  0  0  0  0  0  0  0
   -6.4662    0.3995   -0.8784 N   0  0  0  0  0  0  0  0  0  0  0  0
    3.3335   -1.5195   -0.3157 C   0  0  2  0  0  0  0  0  0  0  0  0
    4.1580   -0.4034   -0.9856 C   0  0  0  0  0  0  0  0  0  0  0  0
    3.5386   -2.8821   -0.9939 C   0  0  0  0  0  0  0  0  0  0  0  0
    3.9384    0.9518   -0.3542 C   0  0  0  0  0  0  0  0  0  0  0  0
    1.0553   -1.6085    0.6632 C   0  0  0  0  0  0  0  0  0  0  0  0
   -0.3657   -1.2127    0.4872 C   0  0  0  0  0  0  0  0  0  0  0  0
    2.9285    1.7878   -0.8306 C   0  0  0  0  0  0  0  0  0  0  0  0
    4.7456    1.3668    0.7050 C   0  0  0  0  0  0  0  0  0  0  0  0
   -3.0348   -0.4721    0.1542 C   0  0  0  0  0  0  0  0  0  0  0  0
   -0.6859   -0.0654   -0.2388 C   0  0  0  0  0  0  0  0  0  0  0  0
   -2.0203    0.3049   -0.4054 C   0  0  0  0  0  0  0  0  0  0  0  0
   -1.3801   -1.9897    1.0468 C   0  0  0  0  0  0  0  0  0  0  0  0
   -2.7146   -1.6192    0.8804 C   0  0  0  0  0  0  0  0  0  0  0  0
    2.7256    3.0388   -0.2477 C   0  0  0  0  0  0  0  0  0  0  0  0
    4.5429    2.6178    1.2879 C   0  0  0  0  0  0  0  0  0  0  0  0
   -4.4172   -0.1095   -0.0068 C   0  0  0  0  0  0  0  0  0  0  0  0
    3.5327    3.4537    0.8116 C   0  0  0  0  0  0  0  0  0  0  0  0
   -5.2695    0.1643    1.0349 C   0  0  0  0  0  0  0  0  0  0  0  0
   -5.2081    0.0508   -1.1602 C   0  0  0  0  0  0  0  0  0  0  0  0
   -2.3806    2.6555   -0.3909 C   0  0  0  0  0  0  0  0  0  0  0  0
    3.6422   -1.6013    0.7354 H   0  0  0  0  0  0  0  0  0  0  0  0
    3.9091   -0.3409   -2.0538 H   0  0  0  0  0  0  0  0  0  0  0  0
    5.2298   -0.6323   -0.9439 H   0  0  0  0  0  0  0  0  0  0  0  0
    3.2274   -2.8380   -2.0446 H   0  0  0  0  0  0  0  0  0  0  0  0
    2.9068   -3.6360   -0.5099 H   0  0  0  0  0  0  0  0  0  0  0  0
    1.5612   -0.7559   -1.1738 H   0  0  0  0  0  0  0  0  0  0  0  0
    2.2981    1.4829   -1.6614 H   0  0  0  0  0  0  0  0  0  0  0  0
    5.5341    0.7234    1.0863 H   0  0  0  0  0  0  0  0  0  0  0  0
    5.5177   -2.7226   -1.4808 H   0  0  0  0  0  0  0  0  0  0  0  0
    5.0013   -4.2565   -1.3336 H   0  0  0  0  0  0  0  0  0  0  0  0
    0.0785    0.5773   -0.6643 H   0  0  0  0  0  0  0  0  0  0  0  0
   -1.1512   -2.8901    1.6108 H   0  0  0  0  0  0  0  0  0  0  0  0
   -3.4897   -2.2427    1.3204 H   0  0  0  0  0  0  0  0  0  0  0  0
    1.9400    3.6900   -0.6195 H   0  0  0  0  0  0  0  0  0  0  0  0
    5.1709    2.9409    2.1130 H   0  0  0  0  0  0  0  0  0  0  0  0
    3.3748    4.4276    1.2655 H   0  0  0  0  0  0  0  0  0  0  0  0
   -5.1383    0.1785    2.1082 H   0  0  0  0  0  0  0  0  0  0  0  0
   -4.9241   -0.0714   -2.1961 H   0  0  0  0  0  0  0  0  0  0  0  0
   -7.3358    0.7122    0.9291 H   0  0  0  0  0  0  0  0  0  0  0  0
   -1.4036    2.9049    0.0353 H   0  0  0  0  0  0  0  0  0  0  0  0
   -3.1307    2.5965    0.4036 H   0  0  0  0  0  0  0  0  0  0  0  0
   -2.6704    3.4489   -1.0853 H   0  0  0  0  0  0  0  0  0  0  0  0
  1 11  2  0  0  0  0
  2 17  1  0  0  0  0
  2 26  1  0  0  0  0
  3  7  1  0  0  0  0
  3 11  1  0  0  0  0
  3 32  1  0  0  0  0
  4  9  1  0  0  0  0
  4 35  1  0  0  0  0
  4 36  1  0  0  0  0
  5  6  1  0  0  0  0
  5 24  1  0  0  0  0
  5 45  1  0  0  0  0
  6 25  2  0  0  0  0
  7  8  1  0  0  0  0
  7  9  1  0  0  0  0
  7 27  1  0  0  0  0
  8 10  1  0  0  0  0
  8 28  1  0  0  0  0
  8 29  1  0  0  0  0
  9 30  1  0  0  0  0
  9 31  1  0  0  0  0
 10 13  2  0  0  0  0
 10 14  1  0  0  0  0
 11 12  1  0  0  0  0
 12 16  2  0  0  0  0
 12 18  1  0  0  0  0
 13 20  1  0  0  0  0
 13 33  1  0  0  0  0
 14 21  2  0  0  0  0
 14 34  1  0  0  0  0
 15 17  2  0  0  0  0
 15 19  1  0  0  0  0
 15 22  1  0  0  0  0
 16 17  1  0  0  0  0
 16 37  1  0  0  0  0
 18 19  2  0  0  0  0
 18 38  1  0  0  0  0
 19 39  1  0  0  0  0
 20 23  2  0  0  0  0
 20 40  1  0  0  0  0
 21 23  1  0  0  0  0
 21 41  1  0  0  0  0
 22 24  2  0  0  0  0
 22 25  1  0  0  0  0
 23 42  1  0  0  0  0
 24 43  1  0  0  0  0
 25 44  1  0  0  0  0
 26 46  1  0  0  0  0
 26 47  1  0  0  0  0
 26 48  1  0  0  0  0
M  END
> <PUBCHEM_COMPOUND_CID>
118662976

> <PUBCHEM_CONFORMER_RMSD>
0.8

> <PUBCHEM_CONFORMER_DIVERSEORDER>
1
73
17
46
106
117
55
92
103
91
108
5
126
90
94
86
120
72
107
124
37
77
122
97
125
115
28
21
80
112
47
43
84
66
31
32
100
102
71
49
116
29
95
87
98
15
123
34
3
62
85
83
99
65
69
9
11
96
14
67
121
42
22
110
18
113
56
2
13
104
35
109
26
88
57
10
40
25
12
52
76
79
53
74
8
89
78
4
75
54
23
33
118
30
93
41
27
81
20
68
70
82
19
63
114
7
48
105
6
64
61
36
44
101
38
45
39
60
119
111
51
58
59
16
24
50

> <PUBCHEM_MMFF94_PARTIAL_CHARGES>
40
1 -0.57
10 -0.14
11 0.54
12 0.09
13 -0.15
14 -0.15
15 0.05
16 -0.15
17 0.08
18 -0.15
19 -0.15
2 -0.36
20 -0.15
21 -0.15
22 -0.05
23 -0.15
24 -0.3
25 0.14
26 0.28
3 -0.73
32 0.37
33 0.15
34 0.15
35 0.36
36 0.36
37 0.15
38 0.15
39 0.15
4 -0.99
40 0.15
41 0.15
42 0.15
43 0.15
44 0.15
45 0.27
5 0.3
6 -0.71
7 0.3
8 0.14
9 0.27

> <PUBCHEM_EFFECTIVE_ROTOR_COUNT>
8

> <PUBCHEM_PHARMACOPHORE_FEATURES>
10
1 1 acceptor
1 2 acceptor
1 3 donor
1 4 cation
1 4 donor
1 5 donor
1 6 acceptor
5 5 6 22 24 25 rings
6 10 13 14 20 21 23 rings
6 12 15 16 17 18 19 rings

> <PUBCHEM_HEAVY_ATOM_COUNT>
26

> <PUBCHEM_ATOM_DEF_STEREO_COUNT>
0

> <PUBCHEM_ATOM_UDEF_STEREO_COUNT>
1

> <PUBCHEM_BOND_DEF_STEREO_COUNT>
0

> <PUBCHEM_BOND_UDEF_STEREO_COUNT>
0

> <PUBCHEM_ISOTOPIC_ATOM_COUNT>
0

> <PUBCHEM_COMPONENT_COUNT>
1

> <PUBCHEM_CACTVS_TAUTO_COUNT>
18

> <PUBCHEM_CONFORMER_ID>
0712A74000000001

> <PUBCHEM_MMFF94_ENERGY>
69.9782

> <PUBCHEM_FEATURE_SELFOVERLAP>
50.747

> <PUBCHEM_SHAPE_FINGERPRINT>
11112241 14 17984976253076364417
11595378 159 15213007250591991167
12107698 1 18200594692102599060
12166972 35 17916867907310544322
12788726 201 17473552352796784910
12925494 130 18192425278350504561
13402501 40 18334855056486130444
13533116 47 18413112744652202541
14790565 3 18339083675586160937
14931854 50 18337121077062913132
15840311 113 18339651041040522273
17844677 252 18271530775943507221
1813 80 14189574139435274331
19311894 1 17476930051983893788
20715895 44 18337667615550800064
21033648 29 17676762111545307141
21279426 13 18262796255794481917
21304303 282 16983472940628032094
2132832 1 17916874495874519506
21475661 188 18262234555528434480
21792934 111 17822561708770182873
21859007 373 17532351107259348877
221357 26 18337677408271062990
22182313 1 17749937895870826725
23227448 37 18266176312866278159
23559900 14 18260557722786516686
34797466 226 17703800244954530079
3680242 22 18113893870793896336
4093350 32 18060426794247600621
44317340 157 18341898519615694499
46194498 28 18272092643449567702
495365 180 18200874088789904880
508706 21 17967818193445980613
5104073 3 18260832626637338435
53794403 172 17969513790673727196
59755656 215 18410014347182662028

> <PUBCHEM_SHAPE_MULTIPOLES>
503.41
13.77
3.76
1.23
13.15
0.37
-0.13
3.6
1.04
-6.72
-0.16
-0.13
-0.15
2.23

> <PUBCHEM_SHAPE_SELFOVERLAP>
1081.96

> <PUBCHEM_SHAPE_VOLUME>
278.2

> <PUBCHEM_COORDINATE_TYPE>
2
5
10

$$$$
118662974
  -OEChem-05102415143D

 43 45  0     1  0  0  0  0  0999 V2000
    4.9748    0.9225   -1.7127 F   0  0  0  0  0  0  0  0  0  0  0  0
   -2.3805   -1.9037   -0.3656 O   0  0  0  0  0  0  0  0  0  0  0  0
    1.0992    2.8738   -0.4166 O   0  0  0  0  0  0  0  0  0  0  0  0
    1.7959    0.8150    0.3916 N   0  0  0  0  0  0  0  0  0  0  0  0
   -6.6199   -0.4662    0.5128 N   0  0  0  0  0  0  0  0  0  0  0  0
   -6.5671   -1.0169   -0.7120 N   0  0  0  0  0  0  0  0  0  0  0  0
    3.2009    1.1400    0.4895 C   0  0  2  0  0  0  0  0  0  0  0  0
    4.0658   -0.0766    0.2392 C   0  0  0  0  0  0  0  0  0  0  0  0
    3.5066    1.8085    1.8282 C   0  0  0  0  0  0  0  0  0  0  0  0
   -0.5528    1.2445   -0.0781 C   0  0  0  0  0  0  0  0  0  0  0  0
    0.8233    1.7142   -0.0609 C   0  0  0  0  0  0  0  0  0  0  0  0
   -3.1931    0.3437   -0.1077 C   0  0  0  0  0  0  0  0  0  0  0  0
   -2.1439   -0.5675   -0.2296 C   0  0  0  0  0  0  0  0  0  0  0  0
   -0.8238   -0.1170   -0.2148 C   0  0  0  0  0  0  0  0  0  0  0  0
    4.9171   -0.1141   -0.8651 C   0  0  0  0  0  0  0  0  0  0  0  0
    4.0120   -1.1606    1.1155 C   0  0  0  0  0  0  0  0  0  0  0  0
   -1.6021    2.1557    0.0437 C   0  0  0  0  0  0  0  0  0  0  0  0
   -2.9221    1.7053    0.0287 C   0  0  0  0  0  0  0  0  0  0  0  0
   -4.5613   -0.0993   -0.1187 C   0  0  0  0  0  0  0  0  0  0  0  0
    5.7145   -1.2356   -1.0933 C   0  0  0  0  0  0  0  0  0  0  0  0
    4.8096   -2.2820    0.8875 C   0  0  0  0  0  0  0  0  0  0  0  0
    5.6606   -2.3197   -0.2171 C   0  0  0  0  0  0  0  0  0  0  0  0
   -5.4443    0.0967    0.9150 C   0  0  0  0  0  0  0  0  0  0  0  0
   -5.3072   -0.7897   -1.0927 C   0  0  0  0  0  0  0  0  0  0  0  0
   -2.4623   -2.6710    0.8332 C   0  0  0  0  0  0  0  0  0  0  0  0
    3.4098    1.8874   -0.2861 H   0  0  0  0  0  0  0  0  0  0  0  0
    1.5061   -0.0839    0.7627 H   0  0  0  0  0  0  0  0  0  0  0  0
    4.5706    2.0560    1.9115 H   0  0  0  0  0  0  0  0  0  0  0  0
    2.9353    2.7371    1.9381 H   0  0  0  0  0  0  0  0  0  0  0  0
    3.2422    1.1678    2.6769 H   0  0  0  0  0  0  0  0  0  0  0  0
   -0.0325   -0.8506   -0.3438 H   0  0  0  0  0  0  0  0  0  0  0  0
    3.3530   -1.1526    1.9794 H   0  0  0  0  0  0  0  0  0  0  0  0
   -1.4122    3.2201    0.1550 H   0  0  0  0  0  0  0  0  0  0  0  0
   -3.7247    2.4333    0.1218 H   0  0  0  0  0  0  0  0  0  0  0  0
    6.3769   -1.2647   -1.9534 H   0  0  0  0  0  0  0  0  0  0  0  0
    4.7672   -3.1265    1.5692 H   0  0  0  0  0  0  0  0  0  0  0  0
    6.2813   -3.1930   -0.3949 H   0  0  0  0  0  0  0  0  0  0  0  0
   -5.3509    0.5723    1.8816 H   0  0  0  0  0  0  0  0  0  0  0  0
   -4.9892   -1.1381   -2.0654 H   0  0  0  0  0  0  0  0  0  0  0  0
   -7.4938   -0.5109    1.0218 H   0  0  0  0  0  0  0  0  0  0  0  0
   -2.7034   -3.7027    0.5630 H   0  0  0  0  0  0  0  0  0  0  0  0
   -3.2488   -2.2905    1.4920 H   0  0  0  0  0  0  0  0  0  0  0  0
   -1.5007   -2.6630    1.3562 H   0  0  0  0  0  0  0  0  0  0  0  0
  1 15  1  0  0  0  0
  2 13  1  0  0  0  0
  2 25  1  0  0  0  0
  3 11  2  0  0  0  0
  4  7  1  0  0  0  0
  4 11  1  0  0  0  0
  4 27  1  0  0  0  0
  5  6  1  0  0  0  0
  5 23  1  0  0  0  0
  5 40  1  0  0  0  0
  6 24  2  0  0  0  0
  7  8  1  0  0  0  0
  7  9  1  0  0  0  0
  7 26  1  0  0  0  0
  8 15  1  0  0  0  0
  8 16  2  0  0  0  0
  9 28  1  0  0  0  0
  9 29  1  0  0  0  0
  9 30  1  0  0  0  0
 10 11  1  0  0  0  0
 10 14  2  0  0  0  0
 10 17  1  0  0  0  0
 12 13  2  0  0  0  0
 12 18  1  0  0  0  0
 12 19  1  0  0  0  0
 13 14  1  0  0  0  0
 14 31  1  0  0  0  0
 15 20  2  0  0  0  0
 16 21  1  0  0  0  0
 16 32  1  0  0  0  0
 17 18  2  0  0  0  0
 17 33  1  0  0  0  0
 18 34  1  0  0  0  0
 19 23  2  0  0  0  0
 19 24  1  0  0  0  0
 20 22  1  0  0  0  0
 20 35  1  0  0  0  0
 21 22  2  0  0  0  0
 21 36  1  0  0  0  0
 22 37  1  0  0  0  0
 23 38  1  0  0  0  0
 24 39  1  0  0  0  0
 25 41  1  0  0  0  0
 25 42  1  0  0  0  0
 25 43  1  0  0  0  0
M  END
> <PUBCHEM_COMPOUND_CID>
118662974

> <PUBCHEM_CONFORMER_RMSD>
0.8

> <PUBCHEM_CONFORMER_DIVERSEORDER>
1
30
94
25
86
37
36
71
85
55
91
42
78
90
81
33
27
67
12
8
21
56
92
95
83
2
93
70
39
58
29
23
45
73
65
63
89
40
47
79
31
72
57
66
82
38
32
4
28
77
60
9
87
53
68
22
46
50
16
52
59
62
69
15
18
35
80
43
74
24
14
41
54
51
13
44
88
17
76
7
5
49
19
11
64
75
26
3
61
20
10
6
48
34
84

> <PUBCHEM_MMFF94_PARTIAL_CHARGES>
35
1 -0.19
10 0.09
11 0.54
12 0.05
13 0.08
14 -0.15
15 0.19
16 -0.15
17 -0.15
18 -0.15
19 -0.05
2 -0.36
20 -0.15
21 -0.15
22 -0.15
23 -0.3
24 0.14
25 0.28
27 0.37
3 -0.57
31 0.15
32 0.15
33 0.15
34 0.15
35 0.15
36 0.15
37 0.15
38 0.15
39 0.15
4 -0.73
40 0.27
5 0.3
6 -0.71
7 0.44
8 -0.14

> <PUBCHEM_EFFECTIVE_ROTOR_COUNT>
6

> <PUBCHEM_PHARMACOPHORE_FEATURES>
8
1 2 acceptor
1 3 acceptor
1 4 donor
1 5 donor
1 6 acceptor
5 5 6 19 23 24 rings
6 10 12 13 14 17 18 rings
6 8 15 16 20 21 22 rings

> <PUBCHEM_HEAVY_ATOM_COUNT>
25

> <PUBCHEM_ATOM_DEF_STEREO_COUNT>
0

> <PUBCHEM_ATOM_UDEF_STEREO_COUNT>
1

> <PUBCHEM_BOND_DEF_STEREO_COUNT>
0

> <PUBCHEM_BOND_UDEF_STEREO_COUNT>
0

> <PUBCHEM_ISOTOPIC_ATOM_COUNT>
0

> <PUBCHEM_COMPONENT_COUNT>
1

> <PUBCHEM_CACTVS_TAUTO_COUNT>
9

> <PUBCHEM_CONFORMER_ID>
0712A73E00000001

> <PUBCHEM_MMFF94_ENERGY>
71.1824

> <PUBCHEM_FEATURE_SELFOVERLAP>
40.597

> <PUBCHEM_SHAPE_FINGERPRINT>
10319926 262 16415487017112528633
11991303 11 17462839875020709373
12166972 35 18202284727543129193
12422481 6 17132115757987152991
12516196 113 18202281407702006144
12616971 3 16415469463301790237
12760667 363 18413389813134846547
13402501 40 18341614785185629438
13533116 47 18201434817670611296
13551218 46 18342172259123943127
13685833 64 18342737403810739200
13782708 43 17703784847386276855
13862211 1 18413385441290675479
14211702 104 18197494237349576631
14216079 64 18413105048687940935
14347332 77 18410571747663848941
14528608 73 13190343465169660928
14565420 104 17272269513554712552
14617045 38 18408609153847154330
15183329 4 18411982455510537015
15348495 7 14907887310585854815
17349148 13 18202848759791145053
17857418 61 18412542098349449562
1813 80 17603298263146469124
18222031 100 18259980478928810900
19319366 153 17821442457104067234
20028762 73 17988918981213895839
20403669 9 18343303643704120454
21150785 3 13767932342969493649
21267235 1 18411142411204103098
21279426 13 18337659833465640029
21682296 61 18412265013204024203
2215653 11 18408880754730708455
22950370 63 18335987484605956952
23522609 53 18125191339911513273
23559900 14 18337951319520513617
23569943 247 18270118998772269187
2748736 6 8862942762589556239
3004659 81 18186520973943935590
3383291 50 18408880724561261387
3411729 13 17702937188747074848
3472631 163 8790592719975512208
34797466 226 16009039396830616205
351380 3 18412543197644754166
404807 14 16624930633461890759
4073 2 18266457801075725698
46194498 28 17167864196868823644
465052 167 18201440255610514694
5104073 3 17917142815108284120
5372103 7 15865216748479979684
54039377 194 18264210210963915234
543368 44 11169914979288396623
59755656 215 18409726223722930935
6138700 20 18410573951419791615
960060 61 18259707804935643196

> <PUBCHEM_SHAPE_MULTIPOLES>
480.53
16.39
2.68
1.16
4.16
0.04
0.08
8.8
-1.69
-1.54
0.38
-1.08
-0.02
0.02

> <PUBCHEM_SHAPE_SELFOVERLAP>
1045.232

> <PUBCHEM_SHAPE_VOLUME>
263.5

> <PUBCHEM_COORDINATE_TYPE>
2
5
10

$$$$
90354019
  -OEChem-05102415143D

 44 47  0     1  0  0  0  0  0999 V2000
    0.6627   -2.7364    0.0257 O   0  0  0  0  0  0  0  0  0  0  0  0
   -3.0566    1.7571    0.9438 O   0  0  0  0  0  0  0  0  0  0  0  0
    1.3545   -0.5254    0.0710 N   0  0  0  0  0  0  0  0  0  0  0  0
   -7.2151    0.1644   -0.0488 N   0  0  0  0  0  0  0  0  0  0  0  0
   -6.9728    1.2834   -0.7525 N   0  0  0  0  0  0  0  0  0  0  0  0
    3.6955    0.2083    0.7810 C   0  0  1  0  0  0  0  0  0  0  0  0
    2.7447   -0.7982    0.1647 C   0  0  1  0  0  0  0  0  0  0  0  0
    3.3937   -1.0924    1.4848 C   0  0  0  0  0  0  0  0  0  0  0  0
    5.0537    0.4430    0.1620 C   0  0  0  0  0  0  0  0  0  0  0  0
    5.1770    1.2637   -0.9593 C   0  0  0  0  0  0  0  0  0  0  0  0
    6.1843   -0.1621    0.7111 C   0  0  0  0  0  0  0  0  0  0  0  0
    0.3771   -1.5259    0.0059 C   0  0  0  0  0  0  0  0  0  0  0  0
    6.4309    1.4793   -1.5313 C   0  0  0  0  0  0  0  0  0  0  0  0
    7.4381    0.0536    0.1390 C   0  0  0  0  0  0  0  0  0  0  0  0
   -1.0094   -1.0931   -0.0661 C   0  0  0  0  0  0  0  0  0  0  0  0
    7.5614    0.8745   -0.9820 C   0  0  0  0  0  0  0  0  0  0  0  0
   -1.3859    0.1358    0.4757 C   0  0  0  0  0  0  0  0  0  0  0  0
   -1.9627   -1.9066   -0.6789 C   0  0  0  0  0  0  0  0  0  0  0  0
   -2.7156    0.5515    0.4048 C   0  0  0  0  0  0  0  0  0  0  0  0
   -3.6689   -0.2620   -0.2080 C   0  0  0  0  0  0  0  0  0  0  0  0
   -3.2925   -1.4911   -0.7495 C   0  0  0  0  0  0  0  0  0  0  0  0
   -5.0447    0.1479   -0.2935 C   0  0  0  0  0  0  0  0  0  0  0  0
   -6.0937   -0.5514    0.2517 C   0  0  0  0  0  0  0  0  0  0  0  0
   -5.6453    1.2679   -0.8989 C   0  0  0  0  0  0  0  0  0  0  0  0
   -2.0105    2.5143    1.5475 C   0  0  0  0  0  0  0  0  0  0  0  0
    3.2411    1.0899    1.2300 H   0  0  0  0  0  0  0  0  0  0  0  0
    3.1105   -1.3574   -0.6919 H   0  0  0  0  0  0  0  0  0  0  0  0
    2.7838   -1.0441    2.3804 H   0  0  0  0  0  0  0  0  0  0  0  0
    4.1118   -1.9029    1.4966 H   0  0  0  0  0  0  0  0  0  0  0  0
    1.0936    0.4520   -0.0190 H   0  0  0  0  0  0  0  0  0  0  0  0
    4.3020    1.7392   -1.3944 H   0  0  0  0  0  0  0  0  0  0  0  0
    6.1198   -0.7911    1.5941 H   0  0  0  0  0  0  0  0  0  0  0  0
    6.5270    2.1184   -2.4042 H   0  0  0  0  0  0  0  0  0  0  0  0
    8.3192   -0.4140    0.5688 H   0  0  0  0  0  0  0  0  0  0  0  0
    8.5378    1.0433   -1.4267 H   0  0  0  0  0  0  0  0  0  0  0  0
   -0.6293    0.7216    0.9817 H   0  0  0  0  0  0  0  0  0  0  0  0
   -1.6881   -2.8650   -1.1120 H   0  0  0  0  0  0  0  0  0  0  0  0
   -4.0180   -2.1386   -1.2368 H   0  0  0  0  0  0  0  0  0  0  0  0
   -6.1494   -1.4724    0.8157 H   0  0  0  0  0  0  0  0  0  0  0  0
   -5.1747    2.0754   -1.4423 H   0  0  0  0  0  0  0  0  0  0  0  0
   -8.1739   -0.0514    0.1943 H   0  0  0  0  0  0  0  0  0  0  0  0
   -2.4587    3.4454    1.9103 H   0  0  0  0  0  0  0  0  0  0  0  0
   -1.2423    2.7997    0.8203 H   0  0  0  0  0  0  0  0  0  0  0  0
   -1.5948    2.0051    2.4238 H   0  0  0  0  0  0  0  0  0  0  0  0
  1 12  2  0  0  0  0
  2 19  1  0  0  0  0
  2 25  1  0  0  0  0
  3  7  1  0  0  0  0
  3 12  1  0  0  0  0
  3 30  1  0  0  0  0
  4  5  1  0  0  0  0
  4 23  1  0  0  0  0
  4 41  1  0  0  0  0
  5 24  2  0  0  0  0
  6  7  1  0  0  0  0
  6  8  1  0  0  0  0
  6  9  1  0  0  0  0
  6 26  1  0  0  0  0
  7  8  1  0  0  0  0
  7 27  1  0  0  0  0
  8 28  1  0  0  0  0
  8 29  1  0  0  0  0
  9 10  2  0  0  0  0
  9 11  1  0  0  0  0
 10 13  1  0  0  0  0
 10 31  1  0  0  0  0
 11 14  2  0  0  0  0
 11 32  1  0  0  0  0
 12 15  1  0  0  0  0
 13 16  2  0  0  0  0
 13 33  1  0  0  0  0
 14 16  1  0  0  0  0
 14 34  1  0  0  0  0
 15 17  2  0  0  0  0
 15 18  1  0  0  0  0
 16 35  1  0  0  0  0
 17 19  1  0  0  0  0
 17 36  1  0  0  0  0
 18 21  2  0  0  0  0
 18 37  1  0  0  0  0
 19 20  2  0  0  0  0
 20 21  1  0  0  0  0
 20 22  1  0  0  0  0
 21 38  1  0  0  0  0
 22 23  2  0  0  0  0
 22 24  1  0  0  0  0
 23 39  1  0  0  0  0
 24 40  1  0  0  0  0
 25 42  1  0  0  0  0
 25 43  1  0  0  0  0
 25 44  1  0  0  0  0
M  END
> <PUBCHEM_COMPOUND_CID>
90354019

> <PUBCHEM_CONFORMER_RMSD>
0.8

> <PUBCHEM_CONFORMER_DIVERSEORDER>
4
16
2
8
6
19
17
11
10
12
13
14
9
7
18
5
15
3
1

> <PUBCHEM_MMFF94_PARTIAL_CHARGES>
41
1 -0.57
10 -0.15
11 -0.15
12 0.54
13 -0.15
14 -0.15
15 0.09
16 -0.15
17 -0.15
18 -0.15
19 0.08
2 -0.36
20 0.05
21 -0.15
22 -0.05
23 -0.3
24 0.14
25 0.28
26 0.1
27 0.1
28 0.1
29 0.1
3 -0.58
30 0.37
31 0.15
32 0.15
33 0.15
34 0.15
35 0.15
36 0.15
37 0.15
38 0.15
39 0.15
4 0.3
40 0.15
41 0.27
5 -0.71
6 -0.07
7 0.05
8 -0.2
9 -0.03

> <PUBCHEM_EFFECTIVE_ROTOR_COUNT>
6.6

> <PUBCHEM_PHARMACOPHORE_FEATURES>
8
1 1 acceptor
1 2 acceptor
1 3 donor
1 4 donor
1 5 acceptor
5 4 5 22 23 24 rings
6 15 17 18 19 20 21 rings
6 9 10 11 13 14 16 rings

> <PUBCHEM_HEAVY_ATOM_COUNT>
25

> <PUBCHEM_ATOM_DEF_STEREO_COUNT>
2

> <PUBCHEM_ATOM_UDEF_STEREO_COUNT>
0

> <PUBCHEM_BOND_DEF_STEREO_COUNT>
0

> <PUBCHEM_BOND_UDEF_STEREO_COUNT>
0

> <PUBCHEM_ISOTOPIC_ATOM_COUNT>
0

> <PUBCHEM_COMPONENT_COUNT>
1

> <PUBCHEM_CACTVS_TAUTO_COUNT>
7

> <PUBCHEM_CONFORMER_ID>
0562B16300000004

> <PUBCHEM_MMFF94_ENERGY>
74.8608

> <PUBCHEM_FEATURE_SELFOVERLAP>
40.597

> <PUBCHEM_SHAPE_FINGERPRINT>
10 15 17967816055074259691
10591671 39 18413674620979701191
106641 1 16950567705286746603
10670039 82 18201726115733497432
10730089 173 18272369775907860187
10906281 52 18201445714967654395
12236239 1 18186799197213723754
12390115 104 17417259723722587121
12596602 18 17748827431791550778
12788726 201 18201435835767459649
13668630 136 13614526264179714044
13685833 64 9799691506552077294
13885169 127 12679190396885248187
13911987 19 18271514318177306183
14123256 10 18060419114139362337
14251764 18 17385723616491497719
14257110 125 18410575080452767550
14840074 17 17894916247771725580
14931854 50 18060136501038795688
14933364 13 17894911836776800630
15183329 4 18131077030792938206
15461852 350 18340198679324491551
15575132 122 18334573508262854517
1577012 14 18261387893226465350
15961568 22 18333733485494879140
16989713 51 17986105430523737567
17899979 19 18186525418739981829
18335252 98 18411425029397112147
19611394 137 17969236692679699659
20281389 69 18187641414794383772
21049683 271 18410853292283442609
22061861 79 15554452907750203172
22122407 14 17240496809476161956
221357 26 17275385400331229888
22224240 67 15140679198252921330
23198884 109 15482674584975481499
23559900 14 17845362418006464704
335352 9 18273207604944807149
34797466 226 16845573145549325376
3545911 37 18272649051940696386
397830 11 14635451449316843876
4073 2 17386010602312650506
4258327 124 17604727679896734782
4340502 62 15719106959921393906
437815 12 16056880247177217881
445580 37 18272093781425840505
5104073 3 13118817996442637116
5364581 5 13263260963891063382
5486654 2 18272367577481008835
59682541 52 17060063601641890470
59755656 215 17489591147357724310
59755656 520 17822004341372744867

> <PUBCHEM_SHAPE_MULTIPOLES>
487.81
21.62
2.02
1.17
11.68
0.08
-0.08
-8.72
5.35
-1
-0.11
0.83
-0.42
-1.6

> <PUBCHEM_SHAPE_SELFOVERLAP>
1066.925

> <PUBCHEM_SHAPE_VOLUME>
265.4

> <PUBCHEM_COORDINATE_TYPE>
2
5
10

$$$$
118663039
  -OEChem-05102415143D

 48 50  0     0  0  0  0  0  0999 V2000
    4.1859   -2.8053    0.0903 S   0  0  0  0  0  0  0  0  0  0  0  0
   -2.7008   -1.6820    0.7756 O   0  0  0  0  0  0  0  0  0  0  0  0
    0.2997    3.2463   -0.5070 O   0  0  0  0  0  0  0  0  0  0  0  0
    4.7875   -3.9740    0.7051 O   0  0  0  0  0  0  0  0  0  0  0  0
    2.8127   -2.4443    0.3812 O   0  0  0  0  0  0  0  0  0  0  0  0
    0.9443    1.7775    1.1675 N   0  0  0  0  0  0  0  0  0  0  0  0
    5.2388   -1.4630    0.3269 N   0  0  0  0  0  0  0  0  0  0  0  0
   -6.8777   -1.0840   -0.9596 N   0  0  0  0  0  0  0  0  0  0  0  0
   -6.9633   -1.3931    0.3455 N   0  0  0  0  0  0  0  0  0  0  0  0
    3.2993    1.7074    0.5222 C   0  0  0  0  0  0  0  0  0  0  0  0
    2.2547    2.3442    1.3925 C   0  0  0  0  0  0  0  0  0  0  0  0
   -3.7272    0.3334   -0.0382 C   0  0  0  0  0  0  0  0  0  0  0  0
   -1.2506    1.6067    0.1307 C   0  0  0  0  0  0  0  0  0  0  0  0
    4.7486   -0.1584    0.0166 C   0  0  0  0  0  0  0  0  0  0  0  0
    3.7775    0.4324    0.8249 C   0  0  0  0  0  0  0  0  0  0  0  0
   -2.6103   -0.3705    0.4124 C   0  0  0  0  0  0  0  0  0  0  0  0
   -1.3720    0.2662    0.4968 C   0  0  0  0  0  0  0  0  0  0  0  0
    0.0398    2.2714    0.2204 C   0  0  0  0  0  0  0  0  0  0  0  0
    3.7924    2.3916   -0.5890 C   0  0  0  0  0  0  0  0  0  0  0  0
   -3.6056    1.6739   -0.4047 C   0  0  0  0  0  0  0  0  0  0  0  0
   -2.3675    2.3106   -0.3200 C   0  0  0  0  0  0  0  0  0  0  0  0
   -5.0134   -0.3031   -0.1313 C   0  0  0  0  0  0  0  0  0  0  0  0
    5.2416    0.5257   -1.0946 C   0  0  0  0  0  0  0  0  0  0  0  0
    4.7636    1.8008   -1.3972 C   0  0  0  0  0  0  0  0  0  0  0  0
   -5.7289   -0.4304   -1.2969 C   0  0  0  0  0  0  0  0  0  0  0  0
   -5.8217   -0.9136    0.8463 C   0  0  0  0  0  0  0  0  0  0  0  0
    4.3344   -3.0144   -1.6700 C   0  0  0  0  0  0  0  0  0  0  0  0
   -2.4816   -2.6521   -0.2460 C   0  0  0  0  0  0  0  0  0  0  0  0
    2.5055    2.1944    2.4490 H   0  0  0  0  0  0  0  0  0  0  0  0
    2.2119    3.4266    1.2251 H   0  0  0  0  0  0  0  0  0  0  0  0
    3.3998   -0.0923    1.6995 H   0  0  0  0  0  0  0  0  0  0  0  0
    0.6763    1.0139    1.7791 H   0  0  0  0  0  0  0  0  0  0  0  0
   -0.5179   -0.3212    0.8225 H   0  0  0  0  0  0  0  0  0  0  0  0
    3.4280    3.3847   -0.8376 H   0  0  0  0  0  0  0  0  0  0  0  0
   -4.4643    2.2432   -0.7533 H   0  0  0  0  0  0  0  0  0  0  0  0
   -2.2952    3.3571   -0.6046 H   0  0  0  0  0  0  0  0  0  0  0  0
    5.9976    0.0747   -1.7324 H   0  0  0  0  0  0  0  0  0  0  0  0
    6.2156   -1.6195    0.0440 H   0  0  0  0  0  0  0  0  0  0  0  0
    5.1471    2.3332   -2.2627 H   0  0  0  0  0  0  0  0  0  0  0  0
   -5.5343   -0.1259   -2.3161 H   0  0  0  0  0  0  0  0  0  0  0  0
   -5.6304   -1.0306    1.9038 H   0  0  0  0  0  0  0  0  0  0  0  0
    3.7553   -3.8965   -1.9527 H   0  0  0  0  0  0  0  0  0  0  0  0
    3.9307   -2.1348   -2.1739 H   0  0  0  0  0  0  0  0  0  0  0  0
    5.3852   -3.1670   -1.9232 H   0  0  0  0  0  0  0  0  0  0  0  0
   -7.6424   -1.3504   -1.5671 H   0  0  0  0  0  0  0  0  0  0  0  0
   -2.6404   -3.6443    0.1851 H   0  0  0  0  0  0  0  0  0  0  0  0
   -3.1823   -2.5163   -1.0755 H   0  0  0  0  0  0  0  0  0  0  0  0
   -1.4520   -2.5920   -0.6130 H   0  0  0  0  0  0  0  0  0  0  0  0
  1  4  2  0  0  0  0
  1  5  2  0  0  0  0
  1  7  1  0  0  0  0
  1 27  1  0  0  0  0
  2 16  1  0  0  0  0
  2 28  1  0  0  0  0
  3 18  2  0  0  0  0
  6 11  1  0  0  0  0
  6 18  1  0  0  0  0
  6 32  1  0  0  0  0
  7 14  1  0  0  0  0
  7 38  1  0  0  0  0
  8  9  1  0  0  0  0
  8 25  1  0  0  0  0
  8 45  1  0  0  0  0
  9 26  2  0  0  0  0
 10 11  1  0  0  0  0
 10 15  2  0  0  0  0
 10 19  1  0  0  0  0
 11 29  1  0  0  0  0
 11 30  1  0  0  0  0
 12 16  2  0  0  0  0
 12 20  1  0  0  0  0
 12 22  1  0  0  0  0
 13 17  2  0  0  0  0
 13 18  1  0  0  0  0
 13 21  1  0  0  0  0
 14 15  1  0  0  0  0
 14 23  2  0  0  0  0
 15 31  1  0  0  0  0
 16 17  1  0  0  0  0
 17 33  1  0  0  0  0
 19 24  2  0  0  0  0
 19 34  1  0  0  0  0
 20 21  2  0  0  0  0
 20 35  1  0  0  0  0
 21 36  1  0  0  0  0
 22 25  2  0  0  0  0
 22 26  1  0  0  0  0
 23 24  1  0  0  0  0
 23 37  1  0  0  0  0
 24 39  1  0  0  0  0
 25 40  1  0  0  0  0
 26 41  1  0  0  0  0
 27 42  1  0  0  0  0
 27 43  1  0  0  0  0
 27 44  1  0  0  0  0
 28 46  1  0  0  0  0
 28 47  1  0  0  0  0
 28 48  1  0  0  0  0
M  END
> <PUBCHEM_COMPOUND_CID>
118663039

> <PUBCHEM_CONFORMER_RMSD>
1

> <PUBCHEM_CONFORMER_DIVERSEORDER>
1
74
6
36
83
80
104
50
132
25
24
32
13
107
85
70
113
91
51
68
45
53
111
131
130
120
122
93
29
69
79
102
126
4
121
128
31
41
116
23
46
77
62
33
47
37
99
38
35
72
90
94
39
54
87
106
60
109
26
7
101
3
42
10
58
49
129
73
27
115
12
11
112
78
34
88
56
76
110
86
117
67
61
71
97
100
96
59
123
28
127
98
108
8
95
63
66
103
30
2
119
65
43
22
118
81
64
57
89
55
20
5
82
18
105
9
21
125
92
52
48
44
84
75
124
40
19
14
17
15
114
16

> <PUBCHEM_MMFF94_PARTIAL_CHARGES>
40
1 1.33
10 -0.14
11 0.44
12 0.05
13 0.09
14 0.2
15 -0.15
16 0.08
17 -0.15
18 0.54
19 -0.15
2 -0.36
20 -0.15
21 -0.15
22 -0.05
23 -0.15
24 -0.15
25 -0.3
26 0.14
27 0.11
28 0.28
3 -0.57
31 0.15
32 0.37
33 0.15
34 0.15
35 0.15
36 0.15
37 0.15
38 0.42
39 0.15
4 -0.65
40 0.15
41 0.15
45 0.27
5 -0.65
6 -0.73
7 -0.76
8 0.3
9 -0.71

> <PUBCHEM_EFFECTIVE_ROTOR_COUNT>
8

> <PUBCHEM_PHARMACOPHORE_FEATURES>
11
1 2 acceptor
1 3 acceptor
1 4 acceptor
1 5 acceptor
1 6 donor
1 7 donor
1 8 donor
1 9 acceptor
5 8 9 22 25 26 rings
6 10 14 15 19 23 24 rings
6 12 13 16 17 20 21 rings

> <PUBCHEM_HEAVY_ATOM_COUNT>
28

> <PUBCHEM_ATOM_DEF_STEREO_COUNT>
0

> <PUBCHEM_ATOM_UDEF_STEREO_COUNT>
0

> <PUBCHEM_BOND_DEF_STEREO_COUNT>
0

> <PUBCHEM_BOND_UDEF_STEREO_COUNT>
0

> <PUBCHEM_ISOTOPIC_ATOM_COUNT>
0

> <PUBCHEM_COMPONENT_COUNT>
1

> <PUBCHEM_CACTVS_TAUTO_COUNT>
27

> <PUBCHEM_CONFORMER_ID>
0712A77F00000001

> <PUBCHEM_MMFF94_ENERGY>
80.3597

> <PUBCHEM_FEATURE_SELFOVERLAP>
55.841

> <PUBCHEM_SHAPE_FINGERPRINT>
117089 54 17914347775236613062
11963148 33 18337665450914234423
13383661 66 15910262408383089262
13533116 47 18343864445978636985
13551218 46 18342455954804285751
14251740 57 17988366953942160414
14347332 77 18342453725627134065
14617045 38 18339084890212280713
14840074 17 18130791195986637919
14866123 147 17910394987668476473
14931854 50 18335430024074343078
15003188 105 18261673654602006778
15183329 4 18409449211053827241
15475509 35 18131062757983877704
15799311 1 18338816575215948721
16067689 302 18339368590921937467
17492 89 18266458698998274670
17909252 39 18342175557843443616
21279426 13 18335693898275048549
21682296 61 18411700985435195427
2215653 11 18338794632560505021
23522609 53 18126316175104401113
23559900 14 18265884779028661512
23569914 152 17619030999619953045
23569943 247 18342455911992672755
24771750 20 17101732038471130357
27425 322 15792580819398673680
3004659 81 18186516610088513952
345986 75 17489872609275596712
34797466 226 16950567726687970565
3729539 64 18411697686668353107
397830 11 10303524070302757333
439807 62 18336265656657520691
46194498 28 17603865654191085404
463206 1 18270958076003146638
59682541 52 18410283727446668199
59755656 215 18337952393578517349
6433294 58 18412265047600465010

> <PUBCHEM_SHAPE_MULTIPOLES>
536.68
16.66
4.13
1.18
13.21
2.02
-0.2
9.59
-3.14
-5.53
-0.08
-0.65
0.02
-0.02

> <PUBCHEM_SHAPE_SELFOVERLAP>
1142.462

> <PUBCHEM_SHAPE_VOLUME>
301

> <PUBCHEM_COORDINATE_TYPE>
2
5
10

$$$$
90354227
  -OEChem-05102415143D

 40 42  0     0  0  0  0  0  0999 V2000
    7.0084    1.9831   -1.8041 Cl  0  0  0  0  0  0  0  0  0  0  0  0
   -3.1111   -1.8415   -0.7956 O   0  0  0  0  0  0  0  0  0  0  0  0
    1.3912    0.2599    2.3919 O   0  0  0  0  0  0  0  0  0  0  0  0
    1.6814   -1.2384    0.6461 N   0  0  0  0  0  0  0  0  0  0  0  0
   -6.5537    1.0867   -0.1763 N   0  0  0  0  0  0  0  0  0  0  0  0
   -6.3237    0.9209   -1.4900 N   0  0  0  0  0  0  0  0  0  0  0  0
   -3.0662    0.3686    0.1484 C   0  0  0  0  0  0  0  0  0  0  0  0
   -0.4374   -0.0848    0.9651 C   0  0  0  0  0  0  0  0  0  0  0  0
   -2.4510   -0.8526   -0.1274 C   0  0  0  0  0  0  0  0  0  0  0  0
   -1.1365   -1.0792    0.2810 C   0  0  0  0  0  0  0  0  0  0  0  0
    3.0462   -1.5973    0.9582 C   0  0  0  0  0  0  0  0  0  0  0  0
   -4.4210    0.6226   -0.2620 C   0  0  0  0  0  0  0  0  0  0  0  0
   -2.3669    1.3631    0.8323 C   0  0  0  0  0  0  0  0  0  0  0  0
   -1.0527    1.1365    1.2409 C   0  0  0  0  0  0  0  0  0  0  0  0
    0.9323   -0.3214    1.3926 C   0  0  0  0  0  0  0  0  0  0  0  0
    4.0344   -0.7023    0.2677 C   0  0  0  0  0  0  0  0  0  0  0  0
   -5.4466    0.9188    0.6025 C   0  0  0  0  0  0  0  0  0  0  0  0
   -5.0193    0.6375   -1.5361 C   0  0  0  0  0  0  0  0  0  0  0  0
    4.5138   -1.0384   -0.9984 C   0  0  0  0  0  0  0  0  0  0  0  0
    4.4745    0.4644    0.8932 C   0  0  0  0  0  0  0  0  0  0  0  0
    5.4329   -0.2077   -1.6394 C   0  0  0  0  0  0  0  0  0  0  0  0
    5.3939    1.2949    0.2522 C   0  0  0  0  0  0  0  0  0  0  0  0
    5.8730    0.9591   -1.0140 C   0  0  0  0  0  0  0  0  0  0  0  0
   -2.3959   -3.0526   -1.0288 C   0  0  0  0  0  0  0  0  0  0  0  0
    3.1909   -2.6393    0.6513 H   0  0  0  0  0  0  0  0  0  0  0  0
    3.1934   -1.5622    2.0440 H   0  0  0  0  0  0  0  0  0  0  0  0
   -0.6440   -2.0299    0.1222 H   0  0  0  0  0  0  0  0  0  0  0  0
   -2.8253    2.3244    1.0531 H   0  0  0  0  0  0  0  0  0  0  0  0
   -0.5230    1.9257    1.7681 H   0  0  0  0  0  0  0  0  0  0  0  0
    1.2991   -1.6336   -0.2065 H   0  0  0  0  0  0  0  0  0  0  0  0
   -5.4951    1.0230    1.6777 H   0  0  0  0  0  0  0  0  0  0  0  0
   -4.5626    0.4549   -2.4988 H   0  0  0  0  0  0  0  0  0  0  0  0
    4.1774   -1.9439   -1.4965 H   0  0  0  0  0  0  0  0  0  0  0  0
    4.1132    0.7370    1.8809 H   0  0  0  0  0  0  0  0  0  0  0  0
   -7.4943    1.3141    0.1212 H   0  0  0  0  0  0  0  0  0  0  0  0
    5.7975   -0.4819   -2.6259 H   0  0  0  0  0  0  0  0  0  0  0  0
    5.7288    2.2003    0.7519 H   0  0  0  0  0  0  0  0  0  0  0  0
   -1.5209   -2.8922   -1.6684 H   0  0  0  0  0  0  0  0  0  0  0  0
   -2.1473   -3.5637   -0.0923 H   0  0  0  0  0  0  0  0  0  0  0  0
   -3.0680   -3.7191   -1.5799 H   0  0  0  0  0  0  0  0  0  0  0  0
  1 23  1  0  0  0  0
  2  9  1  0  0  0  0
  2 24  1  0  0  0  0
  3 15  2  0  0  0  0
  4 11  1  0  0  0  0
  4 15  1  0  0  0  0
  4 30  1  0  0  0  0
  5  6  1  0  0  0  0
  5 17  1  0  0  0  0
  5 35  1  0  0  0  0
  6 18  2  0  0  0  0
  7  9  2  0  0  0  0
  7 12  1  0  0  0  0
  7 13  1  0  0  0  0
  8 10  2  0  0  0  0
  8 14  1  0  0  0  0
  8 15  1  0  0  0  0
  9 10  1  0  0  0  0
 10 27  1  0  0  0  0
 11 16  1  0  0  0  0
 11 25  1  0  0  0  0
 11 26  1  0  0  0  0
 12 17  2  0  0  0  0
 12 18  1  0  0  0  0
 13 14  2  0  0  0  0
 13 28  1  0  0  0  0
 14 29  1  0  0  0  0
 16 19  2  0  0  0  0
 16 20  1  0  0  0  0
 17 31  1  0  0  0  0
 18 32  1  0  0  0  0
 19 21  1  0  0  0  0
 19 33  1  0  0  0  0
 20 22  2  0  0  0  0
 20 34  1  0  0  0  0
 21 23  2  0  0  0  0
 21 36  1  0  0  0  0
 22 23  1  0  0  0  0
 22 37  1  0  0  0  0
 24 38  1  0  0  0  0
 24 39  1  0  0  0  0
 24 40  1  0  0  0  0
M  END
> <PUBCHEM_COMPOUND_CID>
90354227

> <PUBCHEM_CONFORMER_RMSD>
0.8

> <PUBCHEM_CONFORMER_DIVERSEORDER>
5
19
11
14
12
4
9
7
10
17
13
16
20
3
15
18
1
8
6
2

> <PUBCHEM_MMFF94_PARTIAL_CHARGES>
35
1 -0.18
10 -0.15
11 0.44
12 -0.05
13 -0.15
14 -0.15
15 0.54
16 -0.14
17 -0.3
18 0.14
19 -0.15
2 -0.36
20 -0.15
21 -0.15
22 -0.15
23 0.18
24 0.28
27 0.15
28 0.15
29 0.15
3 -0.57
30 0.37
31 0.15
32 0.15
33 0.15
34 0.15
35 0.27
36 0.15
37 0.15
4 -0.73
5 0.3
6 -0.71
7 0.05
8 0.09
9 0.08

> <PUBCHEM_EFFECTIVE_ROTOR_COUNT>
6

> <PUBCHEM_PHARMACOPHORE_FEATURES>
8
1 2 acceptor
1 3 acceptor
1 4 donor
1 5 donor
1 6 acceptor
5 5 6 12 17 18 rings
6 16 19 20 21 22 23 rings
6 7 8 9 10 13 14 rings

> <PUBCHEM_HEAVY_ATOM_COUNT>
24

> <PUBCHEM_ATOM_DEF_STEREO_COUNT>
0

> <PUBCHEM_ATOM_UDEF_STEREO_COUNT>
0

> <PUBCHEM_BOND_DEF_STEREO_COUNT>
0

> <PUBCHEM_BOND_UDEF_STEREO_COUNT>
0

> <PUBCHEM_ISOTOPIC_ATOM_COUNT>
0

> <PUBCHEM_COMPONENT_COUNT>
1

> <PUBCHEM_CACTVS_TAUTO_COUNT>
7

> <PUBCHEM_CONFORMER_ID>
0562B23300000005

> <PUBCHEM_MMFF94_ENERGY>
67.1125

> <PUBCHEM_FEATURE_SELFOVERLAP>
40.597

> <PUBCHEM_SHAPE_FINGERPRINT>
10319926 262 11026061461852294104
10554248 39 18119789336768751487
10692045 39 14201664343999561112
10906281 52 17988372481527925867
12236239 1 18186518795715080155
12616971 3 17604413151068193410
12788726 201 17489024838739910547
12895836 83 18260267464464431599
12895837 130 17823146785962304876
13668630 136 14477245955327602364
13685833 64 13470685936788487640
13690498 29 18057321910486660167
13782708 43 13254211927470960133
13955234 65 16154258391691436162
14251764 18 8718825393107865170
14251764 30 13542475245921358324
14528608 73 18411418406177051496
14790565 3 18057891238703386233
14840074 17 18333454226942598765
15183329 4 18131634465080099144
15475509 8 17203615848238208481
15575132 122 18262797355253472437
16728300 4 9655034211772708420
18222031 100 14979956973903702386
19319366 153 18188760661285864771
19427546 20 18263646332569408535
19784866 240 13758073008706407481
21033648 29 15647344065359639114
21150785 3 18334287683137926351
21307412 95 16415485973081801495
21792934 111 11098125627659774295
22079108 93 16153714214908241483
2215653 11 16988839479834427171
22849339 104 18059573641543835007
23016692 55 16128656331994799152
23522609 53 17916042182541581625
23559900 14 17845644966766943920
23569914 2 15505424618446130325
23576562 1 18337662136116899933
25122255 55 13686009951644406237
270888 7 17531536498709772476
2838139 119 17603864551064582052
2916195 48 16588024606293396513
3004659 81 16630807695232031048
3472631 163 18186526535778624918
34797466 226 18335427832923291934
465052 167 12535345706007982256
474113 269 10231759938236884545
54039377 194 12247415475699869540
543368 44 18040436598817708565
57307002 29 18343016735530607351
6898599 12 18268148832458051534
7237137 82 18339636841229587647
7970288 3 12895082795234314628
960060 61 17060336323427473026

> <PUBCHEM_SHAPE_MULTIPOLES>
469.1
17.71
2.03
1.73
5.53
1
-0.01
-9.88
9.62
-0.02
0.68
0.87
-0.2
-1.3

> <PUBCHEM_SHAPE_SELFOVERLAP>
1012.283

> <PUBCHEM_SHAPE_VOLUME>
259.3

> <PUBCHEM_COORDINATE_TYPE>
2
5
10

$$$$
118662901
  -OEChem-05102415143D

 43 45  0     1  0  0  0  0  0999 V2000
   -2.2252   -1.8309   -0.5101 O   0  0  0  0  0  0  0  0  0  0  0  0
    0.9329    3.1648   -0.4402 O   0  0  0  0  0  0  0  0  0  0  0  0
    4.7086   -2.8657    1.2629 O   0  0  0  0  0  0  0  0  0  0  0  0
    1.8043    1.1180    0.2166 N   0  0  0  0  0  0  0  0  0  0  0  0
    4.0059   -0.7308    0.7278 N   0  0  0  0  0  0  0  0  0  0  0  0
   -6.5013   -0.7307    0.6365 N   0  0  0  0  0  0  0  0  0  0  0  0
   -6.4721   -1.2092   -0.6191 N   0  0  0  0  0  0  0  0  0  0  0  0
    3.1829    1.5294    0.2715 C   0  0  2  0  0  0  0  0  0  0  0  0
    4.0414    0.3663   -0.1091 C   0  0  0  0  0  0  0  0  0  0  0  0
    3.5403    2.0572    1.6515 C   0  0  0  0  0  0  0  0  0  0  0  0
   -0.5924    1.4125   -0.1233 C   0  0  0  0  0  0  0  0  0  0  0  0
    0.7787    1.9838   -0.1404 C   0  0  0  0  0  0  0  0  0  0  0  0
   -3.1676    0.3396   -0.0875 C   0  0  0  0  0  0  0  0  0  0  0  0
   -2.0689   -0.4911   -0.3080 C   0  0  0  0  0  0  0  0  0  0  0  0
   -0.7814    0.0452   -0.3259 C   0  0  0  0  0  0  0  0  0  0  0  0
    4.8228    0.3450   -1.2004 C   0  0  0  0  0  0  0  0  0  0  0  0
   -1.6912    2.2433    0.0971 C   0  0  0  0  0  0  0  0  0  0  0  0
   -2.9787    1.7068    0.1147 C   0  0  0  0  0  0  0  0  0  0  0  0
   -4.5033   -0.1929   -0.0634 C   0  0  0  0  0  0  0  0  0  0  0  0
    4.7389   -1.8885    0.5192 C   0  0  0  0  0  0  0  0  0  0  0  0
    5.6199   -0.8201   -1.4947 C   0  0  0  0  0  0  0  0  0  0  0  0
    5.6008   -1.8953   -0.6972 C   0  0  0  0  0  0  0  0  0  0  0  0
   -5.3465   -0.1131    1.0179 C   0  0  0  0  0  0  0  0  0  0  0  0
   -5.2491   -0.8776   -1.0415 C   0  0  0  0  0  0  0  0  0  0  0  0
   -2.1997   -2.6661    0.6450 C   0  0  0  0  0  0  0  0  0  0  0  0
    3.3235    2.3476   -0.4463 H   0  0  0  0  0  0  0  0  0  0  0  0
    1.5857    0.1830    0.5454 H   0  0  0  0  0  0  0  0  0  0  0  0
    3.3184    1.3375    2.4475 H   0  0  0  0  0  0  0  0  0  0  0  0
    4.6020    2.3202    1.7144 H   0  0  0  0  0  0  0  0  0  0  0  0
    2.9616    2.9608    1.8762 H   0  0  0  0  0  0  0  0  0  0  0  0
    0.0490   -0.6247   -0.5316 H   0  0  0  0  0  0  0  0  0  0  0  0
    3.3998   -0.6920    1.5417 H   0  0  0  0  0  0  0  0  0  0  0  0
    4.8792    1.1852   -1.8834 H   0  0  0  0  0  0  0  0  0  0  0  0
   -1.5643    3.3101    0.2609 H   0  0  0  0  0  0  0  0  0  0  0  0
   -3.8212    2.3733    0.2850 H   0  0  0  0  0  0  0  0  0  0  0  0
    6.2386   -0.8014   -2.3850 H   0  0  0  0  0  0  0  0  0  0  0  0
    6.1942   -2.7770   -0.9061 H   0  0  0  0  0  0  0  0  0  0  0  0
   -5.2376    0.3143    2.0052 H   0  0  0  0  0  0  0  0  0  0  0  0
   -4.9563   -1.1503   -2.0458 H   0  0  0  0  0  0  0  0  0  0  0  0
   -7.3450   -0.8615    1.1804 H   0  0  0  0  0  0  0  0  0  0  0  0
   -2.3866   -3.6954    0.3269 H   0  0  0  0  0  0  0  0  0  0  0  0
   -2.9766   -2.3755    1.3588 H   0  0  0  0  0  0  0  0  0  0  0  0
   -1.2166   -2.6222    1.1245 H   0  0  0  0  0  0  0  0  0  0  0  0
  1 14  1  0  0  0  0
  1 25  1  0  0  0  0
  2 12  2  0  0  0  0
  3 20  2  0  0  0  0
  4  8  1  0  0  0  0
  4 12  1  0  0  0  0
  4 27  1  0  0  0  0
  5  9  1  0  0  0  0
  5 20  1  0  0  0  0
  5 32  1  0  0  0  0
  6  7  1  0  0  0  0
  6 23  1  0  0  0  0
  6 40  1  0  0  0  0
  7 24  2  0  0  0  0
  8  9  1  0  0  0  0
  8 10  1  0  0  0  0
  8 26  1  0  0  0  0
  9 16  2  0  0  0  0
 10 28  1  0  0  0  0
 10 29  1  0  0  0  0
 10 30  1  0  0  0  0
 11 12  1  0  0  0  0
 11 15  2  0  0  0  0
 11 17  1  0  0  0  0
 13 14  2  0  0  0  0
 13 18  1  0  0  0  0
 13 19  1  0  0  0  0
 14 15  1  0  0  0  0
 15 31  1  0  0  0  0
 16 21  1  0  0  0  0
 16 33  1  0  0  0  0
 17 18  2  0  0  0  0
 17 34  1  0  0  0  0
 18 35  1  0  0  0  0
 19 23  2  0  0  0  0
 19 24  1  0  0  0  0
 20 22  1  0  0  0  0
 21 22  2  0  0  0  0
 21 36  1  0  0  0  0
 22 37  1  0  0  0  0
 23 38  1  0  0  0  0
 24 39  1  0  0  0  0
 25 41  1  0  0  0  0
 25 42  1  0  0  0  0
 25 43  1  0  0  0  0
M  END
> <PUBCHEM_COMPOUND_CID>
118662901

> <PUBCHEM_CONFORMER_RMSD>
0.8

> <PUBCHEM_CONFORMER_DIVERSEORDER>
1
56
91
14
100
42
84
29
88
72
57
12
68
61
99
92
38
55
7
78
52
98
70
47
41
2
13
21
58
97
64
25
11
40
87
60
26
74
9
48
10
89
45
63
27
59
49
34
35
71
43
17
24
31
82
96
28
62
69
51
94
90
85
3
39
77
80
76
20
23
6
36
73
46
53
95
44
65
30
15
54
50
22
67
19
18
93
86
4
37
83
75
5
33
8
16
81
32
66
79

> <PUBCHEM_MMFF94_PARTIAL_CHARGES>
35
1 -0.36
11 0.09
12 0.54
13 0.05
14 0.08
15 -0.15
16 -0.15
17 -0.15
18 -0.15
19 -0.05
2 -0.57
20 0.62
21 -0.15
22 -0.14
23 -0.3
24 0.14
25 0.28
27 0.37
3 -0.57
31 0.15
32 0.37
33 0.15
34 0.15
35 0.15
36 0.15
37 0.15
38 0.15
39 0.15
4 -0.73
40 0.27
5 -0.54
6 0.3
7 -0.71
8 0.44
9 -0.03

> <PUBCHEM_EFFECTIVE_ROTOR_COUNT>
6

> <PUBCHEM_PHARMACOPHORE_FEATURES>
10
1 1 acceptor
1 2 acceptor
1 3 acceptor
1 4 donor
1 5 donor
1 6 donor
1 7 acceptor
5 6 7 19 23 24 rings
6 11 13 14 15 17 18 rings
6 5 9 16 20 21 22 rings

> <PUBCHEM_HEAVY_ATOM_COUNT>
25

> <PUBCHEM_ATOM_DEF_STEREO_COUNT>
0

> <PUBCHEM_ATOM_UDEF_STEREO_COUNT>
1

> <PUBCHEM_BOND_DEF_STEREO_COUNT>
0

> <PUBCHEM_BOND_UDEF_STEREO_COUNT>
0

> <PUBCHEM_ISOTOPIC_ATOM_COUNT>
0

> <PUBCHEM_COMPONENT_COUNT>
1

> <PUBCHEM_CACTVS_TAUTO_COUNT>
299

> <PUBCHEM_CONFORMER_ID>
0712A6F500000001

> <PUBCHEM_MMFF94_ENERGY>
67.8267

> <PUBCHEM_FEATURE_SELFOVERLAP>
50.75

> <PUBCHEM_SHAPE_FINGERPRINT>
10622 236 17462835477322033074
117089 54 17984436139759929702
11991303 11 17535182251165453621
12166972 35 18131074865570700593
12422481 6 17346884446614621573
12596602 18 13901896809232303430
12760667 363 18413673500082894711
13402501 40 18342462517303727142
13533116 47 18201438124774369072
13551218 46 18341892996071123271
13685833 64 18341896290305816468
13862211 1 18413669128196623175
13955234 65 18270115863525115128
14211702 104 18197216065186885895
14216079 64 18412544310690071903
14347332 77 18410007698261999365
14528608 73 12684812220864334665
14565420 104 17272271716851920760
14617045 38 18408328791361821294
14931854 50 18114187376670601334
15183329 4 18341896290184679207
15348495 7 13973955523839905670
15537594 2 18408609179806764734
17349148 13 18131637798338737285
17857418 61 18411979148353804246
1813 80 17676202489748922196
20028762 73 17989203758988782703
20403669 9 18343024376351071606
21267235 1 18412271626852020116
21279426 13 18337380566128506357
21304303 94 17385725786146483882
21682296 61 18412831274556099303
2215653 11 18408320012411524415
22950370 63 18335708200078436968
23522609 53 18053137048619072328
23559900 14 18339079426998393721
23569943 247 18270403780836848379
2748736 6 9007054643371847575
3004659 81 18186522082045433150
314173 41 18410016559159228732
3383291 50 18410570686770562499
345986 75 18059853926782404136
3472631 163 9079108964697404832
34797466 226 15792023293635467533
351380 3 18341614806559751998
38570 142 13253929404949322242
404807 14 16624370990612136447
4073 2 18194120943911306624
46194498 28 17168145680440802164
465052 167 18201442463223691964
5104073 3 18059852835760880416
54039377 194 18190464866556252242
543368 44 11386367054519628591
59755656 215 18409446960685948343
6138700 20 18411140212755997047
960060 61 18114186341477416364

> <PUBCHEM_SHAPE_MULTIPOLES>
476.96
15.91
2.97
1.13
3.52
0.12
-0.09
-9.64
1.06
-2.06
-0.58
-1
-0.17
-0.03

> <PUBCHEM_SHAPE_SELFOVERLAP>
1034.494

> <PUBCHEM_SHAPE_VOLUME>
260.8

> <PUBCHEM_COORDINATE_TYPE>
2
5
10

$$$$
118662996
  -OEChem-05102415143D

 40 42  0     0  0  0  0  0  0999 V2000
   -4.1897    1.9795    0.0666 F   0  0  0  0  0  0  0  0  0  0  0  0
   -3.5332   -2.5113   -1.3271 F   0  0  0  0  0  0  0  0  0  0  0  0
   -5.8828    1.1189    2.0218 F   0  0  0  0  0  0  0  0  0  0  0  0
    3.8990    2.0300    0.1504 O   0  0  0  0  0  0  0  0  0  0  0  0
   -1.1511    1.9386   -0.2508 O   0  0  0  0  0  0  0  0  0  0  0  0
   -1.5228   -0.0397   -1.4020 N   0  0  0  0  0  0  0  0  0  0  0  0
    6.4136   -1.6420    1.1521 N   0  0  0  0  0  0  0  0  0  0  0  0
    6.9212   -1.0187    0.0750 N   0  0  0  0  0  0  0  0  0  0  0  0
    3.3056   -0.2949    0.0075 C   0  0  0  0  0  0  0  0  0  0  0  0
    0.6568    0.4573   -0.4407 C   0  0  0  0  0  0  0  0  0  0  0  0
   -2.9058    0.2169   -1.7340 C   0  0  0  0  0  0  0  0  0  0  0  0
    2.9610    1.0563   -0.0288 C   0  0  0  0  0  0  0  0  0  0  0  0
   -3.8391   -0.2544   -0.6565 C   0  0  0  0  0  0  0  0  0  0  0  0
    1.6365    1.4323   -0.2530 C   0  0  0  0  0  0  0  0  0  0  0  0
    4.6647   -0.7047    0.2389 C   0  0  0  0  0  0  0  0  0  0  0  0
    2.3259   -1.2699   -0.1805 C   0  0  0  0  0  0  0  0  0  0  0  0
    1.0015   -0.8939   -0.4043 C   0  0  0  0  0  0  0  0  0  0  0  0
   -0.7244    0.8490   -0.6725 C   0  0  0  0  0  0  0  0  0  0  0  0
   -4.4398    0.6695    0.1988 C   0  0  0  0  0  0  0  0  0  0  0  0
   -4.1056   -1.6159   -0.5104 C   0  0  0  0  0  0  0  0  0  0  0  0
    5.0663   -1.4849    1.2956 C   0  0  0  0  0  0  0  0  0  0  0  0
    5.8482   -0.4479   -0.4788 C   0  0  0  0  0  0  0  0  0  0  0  0
   -5.3067    0.2319    1.2002 C   0  0  0  0  0  0  0  0  0  0  0  0
   -4.9727   -2.0534    0.4908 C   0  0  0  0  0  0  0  0  0  0  0  0
   -5.5731   -1.1296    1.3462 C   0  0  0  0  0  0  0  0  0  0  0  0
    3.4468    3.3810    0.0954 C   0  0  0  0  0  0  0  0  0  0  0  0
   -3.1249   -0.3041   -2.6732 H   0  0  0  0  0  0  0  0  0  0  0  0
   -3.0335    1.2877   -1.9292 H   0  0  0  0  0  0  0  0  0  0  0  0
    1.3140    2.4668   -0.2979 H   0  0  0  0  0  0  0  0  0  0  0  0
    2.5723   -2.3290   -0.1534 H   0  0  0  0  0  0  0  0  0  0  0  0
    0.2664   -1.6858   -0.5138 H   0  0  0  0  0  0  0  0  0  0  0  0
   -1.1242   -0.8947   -1.7747 H   0  0  0  0  0  0  0  0  0  0  0  0
    4.5333   -1.9343    2.1222 H   0  0  0  0  0  0  0  0  0  0  0  0
    5.9777    0.1303   -1.3830 H   0  0  0  0  0  0  0  0  0  0  0  0
   -5.1799   -3.1134    0.6043 H   0  0  0  0  0  0  0  0  0  0  0  0
   -6.2480   -1.4699    2.1260 H   0  0  0  0  0  0  0  0  0  0  0  0
    7.0462   -2.1590    1.7498 H   0  0  0  0  0  0  0  0  0  0  0  0
    4.3221    4.0183    0.2602 H   0  0  0  0  0  0  0  0  0  0  0  0
    3.0539    3.6372   -0.8946 H   0  0  0  0  0  0  0  0  0  0  0  0
    2.7389    3.6053    0.9007 H   0  0  0  0  0  0  0  0  0  0  0  0
  1 19  1  0  0  0  0
  2 20  1  0  0  0  0
  3 23  1  0  0  0  0
  4 12  1  0  0  0  0
  4 26  1  0  0  0  0
  5 18  2  0  0  0  0
  6 11  1  0  0  0  0
  6 18  1  0  0  0  0
  6 32  1  0  0  0  0
  7  8  1  0  0  0  0
  7 21  1  0  0  0  0
  7 37  1  0  0  0  0
  8 22  2  0  0  0  0
  9 12  2  0  0  0  0
  9 15  1  0  0  0  0
  9 16  1  0  0  0  0
 10 14  2  0  0  0  0
 10 17  1  0  0  0  0
 10 18  1  0  0  0  0
 11 13  1  0  0  0  0
 11 27  1  0  0  0  0
 11 28  1  0  0  0  0
 12 14  1  0  0  0  0
 13 19  1  0  0  0  0
 13 20  2  0  0  0  0
 14 29  1  0  0  0  0
 15 21  2  0  0  0  0
 15 22  1  0  0  0  0
 16 17  2  0  0  0  0
 16 30  1  0  0  0  0
 17 31  1  0  0  0  0
 19 23  2  0  0  0  0
 20 24  1  0  0  0  0
 21 33  1  0  0  0  0
 22 34  1  0  0  0  0
 23 25  1  0  0  0  0
 24 25  2  0  0  0  0
 24 35  1  0  0  0  0
 25 36  1  0  0  0  0
 26 38  1  0  0  0  0
 26 39  1  0  0  0  0
 26 40  1  0  0  0  0
M  END
> <PUBCHEM_COMPOUND_CID>
118662996

> <PUBCHEM_CONFORMER_RMSD>
0.8

> <PUBCHEM_CONFORMER_DIVERSEORDER>
7
37
33
70
50
67
74
43
59
75
73
82
30
32
63
16
85
41
79
39
65
1
64
44
10
56
28
12
9
45
61
42
57
83
66
25
11
22
40
80
15
60
86
35
6
76
78
18
23
77
81
4
27
48
24
29
34
36
38
53
62
49
58
69
8
13
55
51
46
5
84
31
14
3
17
47
19
72
26
21
2
68
54
20
52
71

> <PUBCHEM_MMFF94_PARTIAL_CHARGES>
35
1 -0.19
10 0.09
11 0.44
12 0.08
13 -0.14
14 -0.15
15 -0.05
16 -0.15
17 -0.15
18 0.54
19 0.19
2 -0.19
20 0.19
21 -0.3
22 0.14
23 0.19
24 -0.15
25 -0.15
26 0.28
29 0.15
3 -0.19
30 0.15
31 0.15
32 0.37
33 0.15
34 0.15
35 0.15
36 0.15
37 0.27
4 -0.36
5 -0.57
6 -0.73
7 0.3
8 -0.71
9 0.05

> <PUBCHEM_EFFECTIVE_ROTOR_COUNT>
6

> <PUBCHEM_PHARMACOPHORE_FEATURES>
8
1 4 acceptor
1 5 acceptor
1 6 donor
1 7 donor
1 8 acceptor
5 7 8 15 21 22 rings
6 13 19 20 23 24 25 rings
6 9 10 12 14 16 17 rings

> <PUBCHEM_HEAVY_ATOM_COUNT>
26

> <PUBCHEM_ATOM_DEF_STEREO_COUNT>
0

> <PUBCHEM_ATOM_UDEF_STEREO_COUNT>
0

> <PUBCHEM_BOND_DEF_STEREO_COUNT>
0

> <PUBCHEM_BOND_UDEF_STEREO_COUNT>
0

> <PUBCHEM_ISOTOPIC_ATOM_COUNT>
0

> <PUBCHEM_COMPONENT_COUNT>
1

> <PUBCHEM_CACTVS_TAUTO_COUNT>
9

> <PUBCHEM_CONFORMER_ID>
0712A75400000007

> <PUBCHEM_MMFF94_ENERGY>
66.2805

> <PUBCHEM_FEATURE_SELFOVERLAP>
40.597

> <PUBCHEM_SHAPE_FINGERPRINT>
11089746 13 15267053735870219523
11545043 162 17604139355070897788
12107183 9 18341619166242006769
12166972 35 17603590716729131380
12422481 6 17917992759139625254
12616971 3 18131349738813119637
12633257 1 18342738524591676687
13103583 49 18341899593183100883
13668630 136 14923954439779704139
13782708 43 16878494645367186562
13955234 65 18264763441226842032
14251757 5 13046525192905746297
14341114 176 18336831991277494293
14849402 71 18339364192680091720
14856354 85 18413111684001366391
14950920 106 18412828018859807651
14955137 171 18059857234439912708
15238133 3 17132121246686539176
15348495 7 17489297633566895810
15510800 12 16589445283550860603
15716309 27 17822013090231110771
15799311 1 18115323236089482570
15880784 105 18335142042000275595
16110190 28 18343587360600888453
17349148 13 14779263098857629621
17780758 139 18413388726972201571
17844677 252 18410294726473324205
1813 80 17240766228837868741
18222031 100 16081361981797631286
19841028 212 18191577769686484795
20028762 73 18343293803987579166
21065198 48 18271528714538579253
21150785 3 13984672447129120770
21403212 168 18336834079485954377
2303208 19 17749104500221401564
23402539 116 15936690367618039374
23522609 53 18117025267246933844
23559900 14 17968086551597668636
24771293 8 18129928097267034160
2838139 119 11239997849689010571
3178227 256 18407762526115478586
350125 39 18411138048177031780
4093350 32 17203333360445988844
465052 167 18408040694078270846
5104073 3 18271241719911773585
7226269 152 15985105206158280651
7495541 125 18187361030791932036
8863177 126 18114184189319272322
999808 66 17822016384545205026

> <PUBCHEM_SHAPE_MULTIPOLES>
486.56
17.07
2.51
1.28
3.72
1.15
0.11
-6.6
6.2
1.11
0.26
-1.64
-0.2
-0.97

> <PUBCHEM_SHAPE_SELFOVERLAP>
1068.611

> <PUBCHEM_SHAPE_VOLUME>
263.5

> <PUBCHEM_COORDINATE_TYPE>
2
5
10

$$$$
118663050
  -OEChem-05102415143D

 50 52  0     1  0  0  0  0  0999 V2000
   -4.9659    0.2262   -1.7010 F   0  0  0  0  0  0  0  0  0  0  0  0
   -3.0541    1.5403    2.1677 O   0  0  0  0  0  0  0  0  0  0  0  0
   -0.8344    0.3000   -2.2958 O   0  0  0  0  0  0  0  0  0  0  0  0
    0.5595   -0.4927    1.3621 O   0  0  0  0  0  0  0  0  0  0  0  0
   -1.2343    0.7496   -0.0569 N   0  0  0  0  0  0  0  0  0  0  0  0
    7.0591   -0.1919    0.9698 N   0  0  0  0  0  0  0  0  0  0  0  0
    7.4002   -0.4512   -0.3041 N   0  0  0  0  0  0  0  0  0  0  0  0
   -3.1952    1.9891    0.8172 C   0  0  0  0  0  0  0  0  0  0  0  0
   -2.6710    0.9065   -0.1738 C   0  0  2  0  0  0  0  0  0  0  0  0
   -3.3618   -0.4439   -0.0847 C   0  0  0  0  0  0  0  0  0  0  0  0
   -4.6954    2.2416    0.5999 C   0  0  0  0  0  0  0  0  0  0  0  0
   -2.4511    3.3242    0.6716 C   0  0  0  0  0  0  0  0  0  0  0  0
   -4.4864   -0.7069   -0.8669 C   0  0  0  0  0  0  0  0  0  0  0  0
   -2.8700   -1.4211    0.7806 C   0  0  0  0  0  0  0  0  0  0  0  0
   -0.4328    0.4559   -1.1456 C   0  0  0  0  0  0  0  0  0  0  0  0
    1.0158    0.3009   -0.8552 C   0  0  0  0  0  0  0  0  0  0  0  0
   -5.1195   -1.9470   -0.7835 C   0  0  0  0  0  0  0  0  0  0  0  0
   -3.5031   -2.6614    0.8640 C   0  0  0  0  0  0  0  0  0  0  0  0
    1.4517   -0.1663    0.3847 C   0  0  0  0  0  0  0  0  0  0  0  0
   -4.6278   -2.9242    0.0819 C   0  0  0  0  0  0  0  0  0  0  0  0
    1.9448    0.6298   -1.8423 C   0  0  0  0  0  0  0  0  0  0  0  0
    3.7455    0.0244   -0.3498 C   0  0  0  0  0  0  0  0  0  0  0  0
    2.8166   -0.3047    0.6374 C   0  0  0  0  0  0  0  0  0  0  0  0
    3.3097    0.4917   -1.5897 C   0  0  0  0  0  0  0  0  0  0  0  0
    5.1506   -0.1179   -0.0899 C   0  0  0  0  0  0  0  0  0  0  0  0
    5.7232    0.0151    1.1514 C   0  0  0  0  0  0  0  0  0  0  0  0
    6.2302   -0.4046   -0.9467 C   0  0  0  0  0  0  0  0  0  0  0  0
    1.0957   -0.9618    2.5974 C   0  0  0  0  0  0  0  0  0  0  0  0
   -2.8437    1.2898   -1.1895 H   0  0  0  0  0  0  0  0  0  0  0  0
   -5.2992    1.3695    0.8714 H   0  0  0  0  0  0  0  0  0  0  0  0
   -5.0496    3.0512    1.2498 H   0  0  0  0  0  0  0  0  0  0  0  0
   -4.9130    2.5239   -0.4352 H   0  0  0  0  0  0  0  0  0  0  0  0
   -2.5108    3.7069   -0.3524 H   0  0  0  0  0  0  0  0  0  0  0  0
   -2.8655    4.0813    1.3476 H   0  0  0  0  0  0  0  0  0  0  0  0
   -1.3957    3.2236    0.9475 H   0  0  0  0  0  0  0  0  0  0  0  0
   -0.8270    0.8401    0.8687 H   0  0  0  0  0  0  0  0  0  0  0  0
   -3.3845    2.2402    2.7565 H   0  0  0  0  0  0  0  0  0  0  0  0
   -2.0120   -1.2390    1.4193 H   0  0  0  0  0  0  0  0  0  0  0  0
   -5.9954   -2.1512   -1.3922 H   0  0  0  0  0  0  0  0  0  0  0  0
   -3.1237   -3.4205    1.5418 H   0  0  0  0  0  0  0  0  0  0  0  0
   -5.1216   -3.8893    0.1478 H   0  0  0  0  0  0  0  0  0  0  0  0
    1.6254    1.0014   -2.8125 H   0  0  0  0  0  0  0  0  0  0  0  0
    3.1941   -0.6820    1.5810 H   0  0  0  0  0  0  0  0  0  0  0  0
    4.0132    0.7615   -2.3735 H   0  0  0  0  0  0  0  0  0  0  0  0
    5.3269    0.2411    2.1318 H   0  0  0  0  0  0  0  0  0  0  0  0
    6.2213   -0.5852   -2.0125 H   0  0  0  0  0  0  0  0  0  0  0  0
    0.2458   -1.1679    3.2567 H   0  0  0  0  0  0  0  0  0  0  0  0
    1.7005   -0.1954    3.0941 H   0  0  0  0  0  0  0  0  0  0  0  0
    1.6334   -1.9078    2.4723 H   0  0  0  0  0  0  0  0  0  0  0  0
    7.7921   -0.1694    1.6677 H   0  0  0  0  0  0  0  0  0  0  0  0
  1 13  1  0  0  0  0
  2  8  1  0  0  0  0
  2 37  1  0  0  0  0
  3 15  2  0  0  0  0
  4 19  1  0  0  0  0
  4 28  1  0  0  0  0
  5  9  1  0  0  0  0
  5 15  1  0  0  0  0
  5 36  1  0  0  0  0
  6  7  1  0  0  0  0
  6 26  1  0  0  0  0
  6 50  1  0  0  0  0
  7 27  2  0  0  0  0
  8  9  1  0  0  0  0
  8 11  1  0  0  0  0
  8 12  1  0  0  0  0
  9 10  1  0  0  0  0
  9 29  1  0  0  0  0
 10 13  1  0  0  0  0
 10 14  2  0  0  0  0
 11 30  1  0  0  0  0
 11 31  1  0  0  0  0
 11 32  1  0  0  0  0
 12 33  1  0  0  0  0
 12 34  1  0  0  0  0
 12 35  1  0  0  0  0
 13 17  2  0  0  0  0
 14 18  1  0  0  0  0
 14 38  1  0  0  0  0
 15 16  1  0  0  0  0
 16 19  2  0  0  0  0
 16 21  1  0  0  0  0
 17 20  1  0  0  0  0
 17 39  1  0  0  0  0
 18 20  2  0  0  0  0
 18 40  1  0  0  0  0
 19 23  1  0  0  0  0
 20 41  1  0  0  0  0
 21 24  2  0  0  0  0
 21 42  1  0  0  0  0
 22 23  2  0  0  0  0
 22 24  1  0  0  0  0
 22 25  1  0  0  0  0
 23 43  1  0  0  0  0
 24 44  1  0  0  0  0
 25 26  2  0  0  0  0
 25 27  1  0  0  0  0
 26 45  1  0  0  0  0
 27 46  1  0  0  0  0
 28 47  1  0  0  0  0
 28 48  1  0  0  0  0
 28 49  1  0  0  0  0
M  END
> <PUBCHEM_COMPOUND_CID>
118663050

> <PUBCHEM_CONFORMER_RMSD>
0.8

> <PUBCHEM_CONFORMER_DIVERSEORDER>
9
128
46
102
109
29
153
110
173
117
138
28
44
142
83
114
150
84
95
167
158
162
31
151
90
165
89
166
127
52
147
103
125
123
98
111
100
113
168
53
61
76
35
124
156
20
130
119
74
164
93
105
112
51
57
77
169
148
36
171
129
107
160
37
135
152
122
55
154
96
140
81
161
104
126
64
54
133
72
75
97
59
43
108
155
34
145
120
143
80
45
159
39
172
177
94
99
163
24
63
174
139
79
116
137
121
88
101
136
56
78
73
25
50
141
170
22
4
132
21
175
118
38
27
66
149
144
62
146
42
92
48
33
86
82
65
11
47
157
68
14
49
70
69
134
115
87
85
131
6
67
17
91
176
41
16
7
60
26
30
3
19
32
58
18
40
71
106
23
8
13
1
12
10
2
15
5

> <PUBCHEM_MMFF94_PARTIAL_CHARGES>
38
1 -0.19
10 -0.14
13 0.19
14 -0.15
15 0.54
16 0.09
17 -0.15
18 -0.15
19 0.08
2 -0.68
20 -0.15
21 -0.15
22 0.05
23 -0.15
24 -0.15
25 -0.05
26 -0.3
27 0.14
28 0.28
3 -0.57
36 0.37
37 0.4
38 0.15
39 0.15
4 -0.36
40 0.15
41 0.15
42 0.15
43 0.15
44 0.15
45 0.15
46 0.15
5 -0.73
50 0.27
6 0.3
7 -0.71
8 0.28
9 0.44

> <PUBCHEM_EFFECTIVE_ROTOR_COUNT>
7

> <PUBCHEM_PHARMACOPHORE_FEATURES>
11
1 2 acceptor
1 2 donor
1 3 acceptor
1 4 acceptor
1 5 donor
1 6 donor
1 7 acceptor
3 8 11 12 hydrophobe
5 6 7 25 26 27 rings
6 10 13 14 17 18 20 rings
6 16 19 21 22 23 24 rings

> <PUBCHEM_HEAVY_ATOM_COUNT>
28

> <PUBCHEM_ATOM_DEF_STEREO_COUNT>
0

> <PUBCHEM_ATOM_UDEF_STEREO_COUNT>
1

> <PUBCHEM_BOND_DEF_STEREO_COUNT>
0

> <PUBCHEM_BOND_UDEF_STEREO_COUNT>
0

> <PUBCHEM_ISOTOPIC_ATOM_COUNT>
0

> <PUBCHEM_COMPONENT_COUNT>
1

> <PUBCHEM_CACTVS_TAUTO_COUNT>
9

> <PUBCHEM_CONFORMER_ID>
0712A78A00000009

> <PUBCHEM_MMFF94_ENERGY>
82.4954

> <PUBCHEM_FEATURE_SELFOVERLAP>
55.823

> <PUBCHEM_SHAPE_FINGERPRINT>
10 15 17489297616956283890
11007060 377 17168432670419264028
11315181 36 18335421287403799164
11545043 162 18131632283621581472
12166972 35 17749953387464487245
12236239 1 18113335336325077582
12596602 18 18412542120394089600
12616971 3 17531260451711770500
12741549 16 16988846107565097539
13583140 156 17846497011179801610
13631057 29 18335698386210099547
13782708 43 17775289382791236910
13947920 75 18411416198917211481
14068700 675 18265331884253043647
14844126 61 18412830218157863355
14856354 85 18411426119954263230
15183329 4 17531245080583227214
15188451 53 18410007779739732198
15876981 60 18410864256237944221
17349148 13 17676493873409661610
17844677 252 17917994997091976968
17857418 61 17603863416913575942
18681886 176 18041272287773674482
18927931 339 18272939340548962527
19489759 90 18343582927846459901
200 152 17312818290403823197
20028762 73 18040428928423362626
20775438 99 16464164961055245771
21033648 29 16845277316079508344
21267235 1 17458628968945418939
21279426 13 12901538006468154752
21304303 282 18266735771929536725
21315759 148 18273219690582026926
21792961 116 16773803550500940220
21814621 53 17988358166713359986
22393880 68 17313655070582636831
22956985 138 17549814938501470243
2303208 19 17346330280291242022
23522609 53 17751106668627060620
23559900 14 18191297381035183045
23569943 247 17899691264222542794
24771293 8 17894635890293964924
314194 84 16805603655938114640
3418910 222 18270687592682034712
4015057 19 15647060420796989725
4073 2 18271251534508305950
4169191 19 16806749446023544612
484985 159 17168439258893926323
5326457 24 18260821562817771626
6009941 240 18130229246797506160
7495541 125 17846216717493248784

> <PUBCHEM_SHAPE_MULTIPOLES>
536.4
15.48
2.42
1.86
22.36
0.36
0.19
-4.09
-0.31
-5.92
0.85
0.15
0.12
-1.21

> <PUBCHEM_SHAPE_SELFOVERLAP>
1162.345

> <PUBCHEM_SHAPE_VOLUME>
295.4

> <PUBCHEM_COORDINATE_TYPE>
2
5
10

$$$$
118662882
  -OEChem-05102415143D

 47 49  0     0  0  0  0  0  0999 V2000
   -1.8979   -1.5752    0.6352 O   0  0  0  0  0  0  0  0  0  0  0  0
    2.7167   -2.7992   -1.1510 O   0  0  0  0  0  0  0  0  0  0  0  0
    0.9727    3.3449   -0.9418 O   0  0  0  0  0  0  0  0  0  0  0  0
    1.7667    1.8856    0.6759 N   0  0  0  0  0  0  0  0  0  0  0  0
   -6.3596   -0.6432    0.4491 N   0  0  0  0  0  0  0  0  0  0  0  0
   -6.0524   -1.5949   -0.4486 N   0  0  0  0  0  0  0  0  0  0  0  0
    4.0812    1.8098   -0.1905 C   0  0  0  0  0  0  0  0  0  0  0  0
    3.0919    2.4533    0.7781 C   0  0  0  0  0  0  0  0  0  0  0  0
    4.2253    0.3221    0.0175 C   0  0  0  0  0  0  0  0  0  0  0  0
   -0.5130    1.7094   -0.1571 C   0  0  0  0  0  0  0  0  0  0  0  0
   -2.9944    0.4357   -0.0939 C   0  0  0  0  0  0  0  0  0  0  0  0
   -1.8411   -0.2659    0.2578 C   0  0  0  0  0  0  0  0  0  0  0  0
    0.7800    2.3742   -0.1884 C   0  0  0  0  0  0  0  0  0  0  0  0
   -0.6004    0.3710    0.2262 C   0  0  0  0  0  0  0  0  0  0  0  0
   -1.6663    2.4109   -0.5089 C   0  0  0  0  0  0  0  0  0  0  0  0
    3.3952   -0.5619   -0.6717 C   0  0  0  0  0  0  0  0  0  0  0  0
   -2.9069    1.7740   -0.4775 C   0  0  0  0  0  0  0  0  0  0  0  0
   -4.2836   -0.2010   -0.0665 C   0  0  0  0  0  0  0  0  0  0  0  0
    5.1881   -0.1689    0.8995 C   0  0  0  0  0  0  0  0  0  0  0  0
    3.5277   -1.9371   -0.4791 C   0  0  0  0  0  0  0  0  0  0  0  0
    5.3205   -1.5441    1.0922 C   0  0  0  0  0  0  0  0  0  0  0  0
    4.4905   -2.4282    0.4028 C   0  0  0  0  0  0  0  0  0  0  0  0
   -5.3345    0.2171    0.7129 C   0  0  0  0  0  0  0  0  0  0  0  0
   -4.7830   -1.3197   -0.7600 C   0  0  0  0  0  0  0  0  0  0  0  0
   -2.0778   -1.8403    2.0244 C   0  0  0  0  0  0  0  0  0  0  0  0
    1.7546   -2.2284   -2.0368 C   0  0  0  0  0  0  0  0  0  0  0  0
    3.7696    2.0005   -1.2258 H   0  0  0  0  0  0  0  0  0  0  0  0
    5.0616    2.2904   -0.0823 H   0  0  0  0  0  0  0  0  0  0  0  0
    3.4198    2.3129    1.8141 H   0  0  0  0  0  0  0  0  0  0  0  0
    3.0350    3.5302    0.5866 H   0  0  0  0  0  0  0  0  0  0  0  0
    1.5524    1.1307    1.3185 H   0  0  0  0  0  0  0  0  0  0  0  0
    0.2789   -0.2138    0.4807 H   0  0  0  0  0  0  0  0  0  0  0  0
   -1.6202    3.4552   -0.8067 H   0  0  0  0  0  0  0  0  0  0  0  0
    2.6660   -0.1273   -1.3473 H   0  0  0  0  0  0  0  0  0  0  0  0
   -3.7927    2.3390   -0.7588 H   0  0  0  0  0  0  0  0  0  0  0  0
    5.8391    0.5100    1.4438 H   0  0  0  0  0  0  0  0  0  0  0  0
    6.0695   -1.9265    1.7794 H   0  0  0  0  0  0  0  0  0  0  0  0
    4.5982   -3.4983    0.5573 H   0  0  0  0  0  0  0  0  0  0  0  0
   -5.4493    1.0282    1.4187 H   0  0  0  0  0  0  0  0  0  0  0  0
   -4.2784   -1.9483   -1.4803 H   0  0  0  0  0  0  0  0  0  0  0  0
   -7.2915   -0.6394    0.8446 H   0  0  0  0  0  0  0  0  0  0  0  0
   -2.1544   -2.9227    2.1588 H   0  0  0  0  0  0  0  0  0  0  0  0
   -2.9958   -1.3769    2.3986 H   0  0  0  0  0  0  0  0  0  0  0  0
   -1.2169   -1.4780    2.5952 H   0  0  0  0  0  0  0  0  0  0  0  0
    1.1996   -3.0578   -2.4876 H   0  0  0  0  0  0  0  0  0  0  0  0
    1.0261   -1.6139   -1.4996 H   0  0  0  0  0  0  0  0  0  0  0  0
    2.2346   -1.6836   -2.8568 H   0  0  0  0  0  0  0  0  0  0  0  0
  1 12  1  0  0  0  0
  1 25  1  0  0  0  0
  2 20  1  0  0  0  0
  2 26  1  0  0  0  0
  3 13  2  0  0  0  0
  4  8  1  0  0  0  0
  4 13  1  0  0  0  0
  4 31  1  0  0  0  0
  5  6  1  0  0  0  0
  5 23  1  0  0  0  0
  5 41  1  0  0  0  0
  6 24  2  0  0  0  0
  7  8  1  0  0  0  0
  7  9  1  0  0  0  0
  7 27  1  0  0  0  0
  7 28  1  0  0  0  0
  8 29  1  0  0  0  0
  8 30  1  0  0  0  0
  9 16  2  0  0  0  0
  9 19  1  0  0  0  0
 10 13  1  0  0  0  0
 10 14  2  0  0  0  0
 10 15  1  0  0  0  0
 11 12  2  0  0  0  0
 11 17  1  0  0  0  0
 11 18  1  0  0  0  0
 12 14  1  0  0  0  0
 14 32  1  0  0  0  0
 15 17  2  0  0  0  0
 15 33  1  0  0  0  0
 16 20  1  0  0  0  0
 16 34  1  0  0  0  0
 17 35  1  0  0  0  0
 18 23  2  0  0  0  0
 18 24  1  0  0  0  0
 19 21  2  0  0  0  0
 19 36  1  0  0  0  0
 20 22  2  0  0  0  0
 21 22  1  0  0  0  0
 21 37  1  0  0  0  0
 22 38  1  0  0  0  0
 23 39  1  0  0  0  0
 24 40  1  0  0  0  0
 25 42  1  0  0  0  0
 25 43  1  0  0  0  0
 25 44  1  0  0  0  0
 26 45  1  0  0  0  0
 26 46  1  0  0  0  0
 26 47  1  0  0  0  0
M  END
> <PUBCHEM_COMPOUND_CID>
118662882

> <PUBCHEM_CONFORMER_RMSD>
0.8

> <PUBCHEM_CONFORMER_DIVERSEORDER>
1
125
175
149
21
95
98
53
16
10
178
141
109
52
121
152
130
38
128
144
13
76
39
132
6
111
37
135
90
168
46
160
110
93
30
63
124
68
50
150
106
102
172
151
138
96
84
51
44
101
166
108
170
94
17
75
91
148
119
26
41
86
159
115
136
177
147
64
9
134
127
34
4
11
131
143
15
49
29
25
14
8
23
114
56
167
33
126
45
171
35
20
71
120
40
142
164
123
42
103
58
176
85
156
48
28
161
154
99
83
18
116
54
157
79
179
43
22
165
112
180
80
12
181
133
70
24
169
97
174
78
173
65
81
158
82
104
88
32
47
162
27
19
66
7
155
118
137
92
2
122
107
146
89
140
62
36
113
31
77
59
153
163
87
60
61
5
145
105
67
117
3
55
129
100
139
69
72
74
57
73

> <PUBCHEM_MMFF94_PARTIAL_CHARGES>
37
1 -0.36
10 0.09
11 0.05
12 0.08
13 0.54
14 -0.15
15 -0.15
16 -0.15
17 -0.15
18 -0.05
19 -0.15
2 -0.36
20 0.08
21 -0.15
22 -0.15
23 -0.3
24 0.14
25 0.28
26 0.28
3 -0.57
31 0.37
32 0.15
33 0.15
34 0.15
35 0.15
36 0.15
37 0.15
38 0.15
39 0.15
4 -0.73
40 0.15
41 0.27
5 0.3
6 -0.71
7 0.14
8 0.3
9 -0.14

> <PUBCHEM_EFFECTIVE_ROTOR_COUNT>
8

> <PUBCHEM_PHARMACOPHORE_FEATURES>
9
1 1 acceptor
1 2 acceptor
1 3 acceptor
1 4 donor
1 5 donor
1 6 acceptor
5 5 6 18 23 24 rings
6 10 11 12 14 15 17 rings
6 9 16 19 20 21 22 rings

> <PUBCHEM_HEAVY_ATOM_COUNT>
26

> <PUBCHEM_ATOM_DEF_STEREO_COUNT>
0

> <PUBCHEM_ATOM_UDEF_STEREO_COUNT>
0

> <PUBCHEM_BOND_DEF_STEREO_COUNT>
0

> <PUBCHEM_BOND_UDEF_STEREO_COUNT>
0

> <PUBCHEM_ISOTOPIC_ATOM_COUNT>
0

> <PUBCHEM_COMPONENT_COUNT>
1

> <PUBCHEM_CACTVS_TAUTO_COUNT>
27

> <PUBCHEM_CONFORMER_ID>
0712A6E200000001

> <PUBCHEM_MMFF94_ENERGY>
81.0154

> <PUBCHEM_FEATURE_SELFOVERLAP>
45.673

> <PUBCHEM_SHAPE_FINGERPRINT>
10366900 7 18336278876899453102
10693767 8 18267285703699992135
11828532 37 17677338337137606907
12107183 9 18127139584880418585
12166972 35 17313389989511958454
12422481 6 18059860528357880991
12645989 146 18269557144178030590
13150687 139 18046087080117067940
13402501 40 18410009910317628922
13533116 47 18271245018605269641
13551218 46 18410854373976332569
1361 2 18341893038789246439
14117953 113 18201721713075605854
14251740 57 17988933232162855486
14347332 77 18409725154144542957
14617045 38 18338805606059450156
14725015 67 18263915566915244962
14840074 17 18130507512948363718
15250474 111 17916293008731771207
15352361 1 18408882906656958224
15635459 17 18411987944684196818
17492 89 18121777232354181522
17857418 61 18342735234794232413
1813 80 17748827431876375509
19301679 30 18409737279243317241
1979834 28 17846498110855232798
19930381 70 18340488842075964727
20403669 9 18408324367439712706
20645477 70 18412262856982670568
21133410 32 16739233840062872290
21197605 99 18198622322867180766
21279426 13 18261103033541348933
21285901 2 18187079572420565189
21315764 119 15719383993601350347
21315764 371 16702018716508513270
21781051 124 16516265023795299155
23522609 53 18193870147707799177
23559900 14 18189618417804694496
24771750 20 16811813924855664997
3004659 81 18040434382894015640
3421961 26 18411978083397574576
3680242 22 18336831883560635258
404807 14 17553783763071957671
46194498 28 17168142394669735156
463206 1 18199744915574962775
5104073 3 18271800169183009336
5309563 4 18341611495335509156
5326457 24 18129662049348743823
9709674 26 18408890607490978978

> <PUBCHEM_SHAPE_MULTIPOLES>
502.52
13.48
3.47
1.25
7.65
0.99
0
-6.94
-1.93
-2.55
0.63
-0.34
-0.76
0.67

> <PUBCHEM_SHAPE_SELFOVERLAP>
1083.548

> <PUBCHEM_SHAPE_VOLUME>
277.5

> <PUBCHEM_COORDINATE_TYPE>
2
5
10

$$$$
90353958
  -OEChem-05102415143D

 40 42  0     0  0  0  0  0  0999 V2000
    3.8329    2.0977   -1.0675 F   0  0  0  0  0  0  0  0  0  0  0  0
   -2.3585    1.9332   -0.0120 O   0  0  0  0  0  0  0  0  0  0  0  0
    1.6082   -2.4484   -0.0583 O   0  0  0  0  0  0  0  0  0  0  0  0
    1.9226   -0.4510   -1.1933 N   0  0  0  0  0  0  0  0  0  0  0  0
   -6.4909    0.0014    0.0278 N   0  0  0  0  0  0  0  0  0  0  0  0
   -6.3026    0.7042    1.1577 N   0  0  0  0  0  0  0  0  0  0  0  0
   -2.9387   -0.3956    0.1205 C   0  0  0  0  0  0  0  0  0  0  0  0
   -0.2529   -1.0387   -0.2749 C   0  0  0  0  0  0  0  0  0  0  0  0
   -1.9954    0.6190   -0.0427 C   0  0  0  0  0  0  0  0  0  0  0  0
    3.3206   -0.6511   -1.5008 C   0  0  0  0  0  0  0  0  0  0  0  0
   -0.6525    0.2974   -0.2404 C   0  0  0  0  0  0  0  0  0  0  0  0
   -4.3285   -0.0864    0.3238 C   0  0  0  0  0  0  0  0  0  0  0  0
   -2.5391   -1.7317    0.0863 C   0  0  0  0  0  0  0  0  0  0  0  0
   -1.1964   -2.0532   -0.1117 C   0  0  0  0  0  0  0  0  0  0  0  0
    1.1467   -1.3742   -0.4829 C   0  0  0  0  0  0  0  0  0  0  0  0
    4.2146   -0.1492   -0.4040 C   0  0  0  0  0  0  0  0  0  0  0  0
   -5.3400   -0.4937   -0.5115 C   0  0  0  0  0  0  0  0  0  0  0  0
   -4.9798    0.6471    1.3335 C   0  0  0  0  0  0  0  0  0  0  0  0
    4.4242    1.2206   -0.2444 C   0  0  0  0  0  0  0  0  0  0  0  0
    4.8349   -1.0545    0.4572 C   0  0  0  0  0  0  0  0  0  0  0  0
    5.2541    1.6851    0.7760 C   0  0  0  0  0  0  0  0  0  0  0  0
    5.6645   -0.5900    1.4778 C   0  0  0  0  0  0  0  0  0  0  0  0
    5.8743    0.7798    1.6372 C   0  0  0  0  0  0  0  0  0  0  0  0
   -2.7224    2.5323   -1.2534 C   0  0  0  0  0  0  0  0  0  0  0  0
    3.5369   -0.1200   -2.4348 H   0  0  0  0  0  0  0  0  0  0  0  0
    3.4953   -1.7163   -1.6917 H   0  0  0  0  0  0  0  0  0  0  0  0
    0.0591    1.1135   -0.3310 H   0  0  0  0  0  0  0  0  0  0  0  0
   -3.2572   -2.5384    0.2145 H   0  0  0  0  0  0  0  0  0  0  0  0
   -0.9062   -3.1003   -0.1392 H   0  0  0  0  0  0  0  0  0  0  0  0
    1.4974    0.3892   -1.5704 H   0  0  0  0  0  0  0  0  0  0  0  0
   -5.3516   -1.0762   -1.4225 H   0  0  0  0  0  0  0  0  0  0  0  0
    4.6797   -2.1243    0.3458 H   0  0  0  0  0  0  0  0  0  0  0  0
   -4.5494    1.1437    2.1919 H   0  0  0  0  0  0  0  0  0  0  0  0
    5.4172    2.7516    0.8998 H   0  0  0  0  0  0  0  0  0  0  0  0
    6.1471   -1.2948    2.1487 H   0  0  0  0  0  0  0  0  0  0  0  0
   -7.4354   -0.1014   -0.3217 H   0  0  0  0  0  0  0  0  0  0  0  0
    6.5203    1.1415    2.4318 H   0  0  0  0  0  0  0  0  0  0  0  0
   -1.8647    2.5495   -1.9334 H   0  0  0  0  0  0  0  0  0  0  0  0
   -3.5571    1.9994   -1.7187 H   0  0  0  0  0  0  0  0  0  0  0  0
   -3.0327    3.5624   -1.0579 H   0  0  0  0  0  0  0  0  0  0  0  0
  1 19  1  0  0  0  0
  2  9  1  0  0  0  0
  2 24  1  0  0  0  0
  3 15  2  0  0  0  0
  4 10  1  0  0  0  0
  4 15  1  0  0  0  0
  4 30  1  0  0  0  0
  5  6  1  0  0  0  0
  5 17  1  0  0  0  0
  5 36  1  0  0  0  0
  6 18  2  0  0  0  0
  7  9  2  0  0  0  0
  7 12  1  0  0  0  0
  7 13  1  0  0  0  0
  8 11  2  0  0  0  0
  8 14  1  0  0  0  0
  8 15  1  0  0  0  0
  9 11  1  0  0  0  0
 10 16  1  0  0  0  0
 10 25  1  0  0  0  0
 10 26  1  0  0  0  0
 11 27  1  0  0  0  0
 12 17  2  0  0  0  0
 12 18  1  0  0  0  0
 13 14  2  0  0  0  0
 13 28  1  0  0  0  0
 14 29  1  0  0  0  0
 16 19  1  0  0  0  0
 16 20  2  0  0  0  0
 17 31  1  0  0  0  0
 18 33  1  0  0  0  0
 19 21  2  0  0  0  0
 20 22  1  0  0  0  0
 20 32  1  0  0  0  0
 21 23  1  0  0  0  0
 21 34  1  0  0  0  0
 22 23  2  0  0  0  0
 22 35  1  0  0  0  0
 23 37  1  0  0  0  0
 24 38  1  0  0  0  0
 24 39  1  0  0  0  0
 24 40  1  0  0  0  0
M  END
> <PUBCHEM_COMPOUND_CID>
90353958

> <PUBCHEM_CONFORMER_RMSD>
0.8

> <PUBCHEM_CONFORMER_DIVERSEORDER>
1
25
60
39
20
43
16
50
46
56
28
57
53
34
52
54
40
59
15
23
13
58
21
37
55
9
5
32
49
47
30
41
18
27
33
14
42
4
29
35
19
61
22
31
7
38
12
24
45
3
26
51
17
2
10
36
6
44
11
8
48

> <PUBCHEM_MMFF94_PARTIAL_CHARGES>
35
1 -0.19
10 0.44
11 -0.15
12 -0.05
13 -0.15
14 -0.15
15 0.54
16 -0.14
17 -0.3
18 0.14
19 0.19
2 -0.36
20 -0.15
21 -0.15
22 -0.15
23 -0.15
24 0.28
27 0.15
28 0.15
29 0.15
3 -0.57
30 0.37
31 0.15
32 0.15
33 0.15
34 0.15
35 0.15
36 0.27
37 0.15
4 -0.73
5 0.3
6 -0.71
7 0.05
8 0.09
9 0.08

> <PUBCHEM_EFFECTIVE_ROTOR_COUNT>
6

> <PUBCHEM_PHARMACOPHORE_FEATURES>
8
1 2 acceptor
1 3 acceptor
1 4 donor
1 5 donor
1 6 acceptor
5 5 6 12 17 18 rings
6 16 19 20 21 22 23 rings
6 7 8 9 11 13 14 rings

> <PUBCHEM_HEAVY_ATOM_COUNT>
24

> <PUBCHEM_ATOM_DEF_STEREO_COUNT>
0

> <PUBCHEM_ATOM_UDEF_STEREO_COUNT>
0

> <PUBCHEM_BOND_DEF_STEREO_COUNT>
0

> <PUBCHEM_BOND_UDEF_STEREO_COUNT>
0

> <PUBCHEM_ISOTOPIC_ATOM_COUNT>
0

> <PUBCHEM_COMPONENT_COUNT>
1

> <PUBCHEM_CACTVS_TAUTO_COUNT>
7

> <PUBCHEM_CONFORMER_ID>
0562B12600000001

> <PUBCHEM_MMFF94_ENERGY>
66.765

> <PUBCHEM_FEATURE_SELFOVERLAP>
40.597

> <PUBCHEM_SHAPE_FINGERPRINT>
10 15 18260551155554368912
12166972 35 18343304734984529280
12403259 415 18340487768729312092
12596602 18 16588309427192276600
12616971 3 17240481454883370438
12925494 130 18048871892864867761
13402501 40 18272086114972644384
13533116 47 17967812704799659890
13668630 136 14129060292360244824
13685833 64 13334732436531827770
13914758 101 15430027722333349741
14341114 176 18259702298813969376
14528608 73 15769777961523885474
15348495 7 17241053213777435481
17349148 13 16950573180927028359
18222031 100 11169912796986269190
21150785 3 14692563317648027769
21315764 268 18408597059424931644
21792934 111 18187930517918030545
21859007 373 17459737130304474959
22149856 69 18198932291474351267
23016692 55 11025794284668925906
23559900 14 18270419242929519998
3472631 163 16773510088239052752
34797466 226 15554173661123164133
351380 3 11169908398797041114
3680242 22 18409172099536925840
4340502 62 17603873295085532827
465052 167 13912321279212643826
5104073 3 18189057649668026522
6913067 236 18261109669101855749
8509985 295 18408321116571696532
86090 222 14996558422825514904
960060 61 9367344843150251672

> <PUBCHEM_SHAPE_MULTIPOLES>
459.95
16.16
2.16
1.27
0.47
0.32
-0.1
4.58
-6.14
-0.37
0.42
-0.92
0.31
0.17

> <PUBCHEM_SHAPE_SELFOVERLAP>
1004.422

> <PUBCHEM_SHAPE_VOLUME>
250.8

> <PUBCHEM_COORDINATE_TYPE>
2
5
10

$$$$
90354004
  -OEChem-05102415143D

 40 42  0     0  0  0  0  0  0999 V2000
    4.8797   -3.0004    0.2015 F   0  0  0  0  0  0  0  0  0  0  0  0
   -2.3627   -1.8353   -0.6187 O   0  0  0  0  0  0  0  0  0  0  0  0
    1.4137    2.5658    0.4841 O   0  0  0  0  0  0  0  0  0  0  0  0
    1.7849    0.9772   -1.1639 N   0  0  0  0  0  0  0  0  0  0  0  0
   -6.5750   -0.1862   -0.0252 N   0  0  0  0  0  0  0  0  0  0  0  0
   -6.3285   -1.1502    0.8782 N   0  0  0  0  0  0  0  0  0  0  0  0
   -3.0428    0.3464    0.1268 C   0  0  0  0  0  0  0  0  0  0  0  0
   -0.3974    1.2002   -0.1104 C   0  0  0  0  0  0  0  0  0  0  0  0
   -2.0588   -0.5433   -0.3050 C   0  0  0  0  0  0  0  0  0  0  0  0
   -0.7361   -0.1162   -0.4235 C   0  0  0  0  0  0  0  0  0  0  0  0
    3.1793    1.2868   -1.3843 C   0  0  0  0  0  0  0  0  0  0  0  0
   -4.4121   -0.0733    0.2577 C   0  0  0  0  0  0  0  0  0  0  0  0
   -2.7040    1.6629    0.4396 C   0  0  0  0  0  0  0  0  0  0  0  0
   -1.3814    2.0898    0.3213 C   0  0  0  0  0  0  0  0  0  0  0  0
    0.9818    1.6451   -0.2321 C   0  0  0  0  0  0  0  0  0  0  0  0
    4.0813    0.4802   -0.4954 C   0  0  0  0  0  0  0  0  0  0  0  0
   -5.4605    0.4884   -0.4292 C   0  0  0  0  0  0  0  0  0  0  0  0
   -5.0056   -1.0765    1.0471 C   0  0  0  0  0  0  0  0  0  0  0  0
    4.0617   -0.9131   -0.5615 C   0  0  0  0  0  0  0  0  0  0  0  0
    4.9383    1.1240    0.3973 C   0  0  0  0  0  0  0  0  0  0  0  0
    4.8991   -1.6625    0.2647 C   0  0  0  0  0  0  0  0  0  0  0  0
    5.7756    0.3746    1.2238 C   0  0  0  0  0  0  0  0  0  0  0  0
    5.7563   -1.0186    1.1573 C   0  0  0  0  0  0  0  0  0  0  0  0
   -1.2871   -2.6657   -1.0501 C   0  0  0  0  0  0  0  0  0  0  0  0
    3.3300    2.3615   -1.2323 H   0  0  0  0  0  0  0  0  0  0  0  0
    3.4082    1.0689   -2.4335 H   0  0  0  0  0  0  0  0  0  0  0  0
    0.0589   -0.7917   -0.7118 H   0  0  0  0  0  0  0  0  0  0  0  0
   -3.4543    2.3721    0.7816 H   0  0  0  0  0  0  0  0  0  0  0  0
   -1.1381    3.1202    0.5670 H   0  0  0  0  0  0  0  0  0  0  0  0
    1.3834    0.2690   -1.7690 H   0  0  0  0  0  0  0  0  0  0  0  0
   -5.5201    1.2880   -1.1548 H   0  0  0  0  0  0  0  0  0  0  0  0
   -4.5330   -1.7586    1.7400 H   0  0  0  0  0  0  0  0  0  0  0  0
    3.4016   -1.4280   -1.2545 H   0  0  0  0  0  0  0  0  0  0  0  0
    4.9639    2.2086    0.4609 H   0  0  0  0  0  0  0  0  0  0  0  0
   -7.5313   -0.0418   -0.3240 H   0  0  0  0  0  0  0  0  0  0  0  0
    6.4427    0.8757    1.9191 H   0  0  0  0  0  0  0  0  0  0  0  0
    6.4081   -1.6023    1.8006 H   0  0  0  0  0  0  0  0  0  0  0  0
   -0.8426   -2.3043   -1.9839 H   0  0  0  0  0  0  0  0  0  0  0  0
   -0.5450   -2.8126   -0.2577 H   0  0  0  0  0  0  0  0  0  0  0  0
   -1.7121   -3.6515   -1.2671 H   0  0  0  0  0  0  0  0  0  0  0  0
  1 21  1  0  0  0  0
  2  9  1  0  0  0  0
  2 24  1  0  0  0  0
  3 15  2  0  0  0  0
  4 11  1  0  0  0  0
  4 15  1  0  0  0  0
  4 30  1  0  0  0  0
  5  6  1  0  0  0  0
  5 17  1  0  0  0  0
  5 35  1  0  0  0  0
  6 18  2  0  0  0  0
  7  9  2  0  0  0  0
  7 12  1  0  0  0  0
  7 13  1  0  0  0  0
  8 10  2  0  0  0  0
  8 14  1  0  0  0  0
  8 15  1  0  0  0  0
  9 10  1  0  0  0  0
 10 27  1  0  0  0  0
 11 16  1  0  0  0  0
 11 25  1  0  0  0  0
 11 26  1  0  0  0  0
 12 17  2  0  0  0  0
 12 18  1  0  0  0  0
 13 14  2  0  0  0  0
 13 28  1  0  0  0  0
 14 29  1  0  0  0  0
 16 19  2  0  0  0  0
 16 20  1  0  0  0  0
 17 31  1  0  0  0  0
 18 32  1  0  0  0  0
 19 21  1  0  0  0  0
 19 33  1  0  0  0  0
 20 22  2  0  0  0  0
 20 34  1  0  0  0  0
 21 23  2  0  0  0  0
 22 23  1  0  0  0  0
 22 36  1  0  0  0  0
 23 37  1  0  0  0  0
 24 38  1  0  0  0  0
 24 39  1  0  0  0  0
 24 40  1  0  0  0  0
M  END
> <PUBCHEM_COMPOUND_CID>
90354004

> <PUBCHEM_CONFORMER_RMSD>
0.8

> <PUBCHEM_CONFORMER_DIVERSEORDER>
11
12
19
30
36
50
1
25
26
44
8
38
29
46
3
5
39
24
18
27
35
10
17
2
41
47
45
37
51
13
33
48
40
42
6
22
32
4
21
43
15
31
23
49
20
34
52
7
14
28
9
53
16

> <PUBCHEM_MMFF94_PARTIAL_CHARGES>
35
1 -0.19
10 -0.15
11 0.44
12 -0.05
13 -0.15
14 -0.15
15 0.54
16 -0.14
17 -0.3
18 0.14
19 -0.15
2 -0.36
20 -0.15
21 0.19
22 -0.15
23 -0.15
24 0.28
27 0.15
28 0.15
29 0.15
3 -0.57
30 0.37
31 0.15
32 0.15
33 0.15
34 0.15
35 0.27
36 0.15
37 0.15
4 -0.73
5 0.3
6 -0.71
7 0.05
8 0.09
9 0.08

> <PUBCHEM_EFFECTIVE_ROTOR_COUNT>
6

> <PUBCHEM_PHARMACOPHORE_FEATURES>
8
1 2 acceptor
1 3 acceptor
1 4 donor
1 5 donor
1 6 acceptor
5 5 6 12 17 18 rings
6 16 19 20 21 22 23 rings
6 7 8 9 10 13 14 rings

> <PUBCHEM_HEAVY_ATOM_COUNT>
24

> <PUBCHEM_ATOM_DEF_STEREO_COUNT>
0

> <PUBCHEM_ATOM_UDEF_STEREO_COUNT>
0

> <PUBCHEM_BOND_DEF_STEREO_COUNT>
0

> <PUBCHEM_BOND_UDEF_STEREO_COUNT>
0

> <PUBCHEM_ISOTOPIC_ATOM_COUNT>
0

> <PUBCHEM_COMPONENT_COUNT>
1

> <PUBCHEM_CACTVS_TAUTO_COUNT>
7

> <PUBCHEM_CONFORMER_ID>
0562B1540000000B

> <PUBCHEM_MMFF94_ENERGY>
66.426

> <PUBCHEM_FEATURE_SELFOVERLAP>
40.597

> <PUBCHEM_SHAPE_FINGERPRINT>
11756154 67 18121504549297189694
11796584 16 17530964713201242137
12236239 1 18113618997224175509
12788726 201 17988659487826895776
13073987 5 18341896268594090656
13533116 47 18410013243280900352
13551218 46 18411419492508664079
13782708 43 17023189370343766339
13862211 1 18342176696157313607
13914758 101 17894628116054791053
14211702 104 18188220874306997563
14251740 57 18339929204238465910
14341114 176 18202562878721307760
14528608 73 9799690394039386080
15183329 4 16443061681941612877
17492 89 18193555567765904874
17857418 61 18411981381668193925
1813 80 17603589604148115228
1979834 28 17918001555264542662
20567600 234 15769488815477199641
208703 8 17534044299912486730
21267235 1 18410862032156215998
21279426 13 18263079929525052301
21424621 283 14476422417319517147
21682296 61 18338242544194493711
21859007 373 18262217946890778261
22079108 93 13830127291124493229
221357 26 11602815792477102718
23366157 5 17906452482368357301
23559900 14 18057887037835395696
3004659 81 18186809084470961252
3383291 50 18409168822504064987
3680242 22 18341342118912204859
465052 167 18335993046619870591
5104073 3 18200879469925381232
559249 180 18260543368884370417
5718773 13 17750507383281736106
59682541 52 14851874859493081512
960060 61 14851612068304466472

> <PUBCHEM_SHAPE_MULTIPOLES>
459.95
16.02
2.51
1.07
1.68
0.8
-0.02
5.81
4.82
-1.34
-0.13
-0.62
0.08
-0.37

> <PUBCHEM_SHAPE_SELFOVERLAP>
1004.27

> <PUBCHEM_SHAPE_VOLUME>
251.1

> <PUBCHEM_COORDINATE_TYPE>
2
5
10

$$$$
90354052
  -OEChem-05102415143D

 43 45  0     0  0  0  0  0  0999 V2000
    0.8538   -2.5121    0.4041 O   0  0  0  0  0  0  0  0  0  0  0  0
    5.4518    2.4720   -0.2723 O   0  0  0  0  0  0  0  0  0  0  0  0
    1.4071   -0.9628   -1.2299 N   0  0  0  0  0  0  0  0  0  0  0  0
   -6.5196    1.7328   -0.4964 N   0  0  0  0  0  0  0  0  0  0  0  0
   -6.6748    1.5109    0.8200 N   0  0  0  0  0  0  0  0  0  0  0  0
   -3.3540    0.1410   -0.0161 C   0  0  0  0  0  0  0  0  0  0  0  0
   -3.1466   -1.1974    0.3183 C   0  0  0  0  0  0  0  0  0  0  0  0
   -0.7990   -0.9638   -0.2030 C   0  0  0  0  0  0  0  0  0  0  0  0
   -1.8692   -1.7497    0.2248 C   0  0  0  0  0  0  0  0  0  0  0  0
   -2.2839    0.9268   -0.4442 C   0  0  0  0  0  0  0  0  0  0  0  0
   -4.6615    0.7344    0.0707 C   0  0  0  0  0  0  0  0  0  0  0  0
    2.7533   -1.4356   -1.4604 C   0  0  0  0  0  0  0  0  0  0  0  0
   -1.0065    0.3746   -0.5375 C   0  0  0  0  0  0  0  0  0  0  0  0
    3.7492   -0.7526   -0.5682 C   0  0  0  0  0  0  0  0  0  0  0  0
    0.5332   -1.5390   -0.3008 C   0  0  0  0  0  0  0  0  0  0  0  0
   -4.2692   -2.0710    0.7800 C   0  0  0  0  0  0  0  0  0  0  0  0
    4.1422    0.5585   -0.8371 C   0  0  0  0  0  0  0  0  0  0  0  0
   -5.3307    1.2866   -0.9941 C   0  0  0  0  0  0  0  0  0  0  0  0
    4.2820   -1.4292    0.5292 C   0  0  0  0  0  0  0  0  0  0  0  0
   -5.5366    0.9007    1.1608 C   0  0  0  0  0  0  0  0  0  0  0  0
    5.0679    1.1931   -0.0087 C   0  0  0  0  0  0  0  0  0  0  0  0
    5.2078   -0.7948    1.3575 C   0  0  0  0  0  0  0  0  0  0  0  0
    5.6006    0.5164    1.0887 C   0  0  0  0  0  0  0  0  0  0  0  0
    6.4025    3.0601    0.6145 C   0  0  0  0  0  0  0  0  0  0  0  0
   -1.7109   -2.7942    0.4833 H   0  0  0  0  0  0  0  0  0  0  0  0
   -2.4210    1.9753   -0.6990 H   0  0  0  0  0  0  0  0  0  0  0  0
    2.9985   -1.2433   -2.5112 H   0  0  0  0  0  0  0  0  0  0  0  0
    2.7818   -2.5223   -1.3196 H   0  0  0  0  0  0  0  0  0  0  0  0
   -0.1969    1.0310   -0.8428 H   0  0  0  0  0  0  0  0  0  0  0  0
    1.0919   -0.2033   -1.8236 H   0  0  0  0  0  0  0  0  0  0  0  0
   -5.1332   -1.9964    0.1113 H   0  0  0  0  0  0  0  0  0  0  0  0
   -3.9774   -3.1275    0.7875 H   0  0  0  0  0  0  0  0  0  0  0  0
   -4.5665   -1.8087    1.8001 H   0  0  0  0  0  0  0  0  0  0  0  0
    3.7303    1.0907   -1.6912 H   0  0  0  0  0  0  0  0  0  0  0  0
   -5.0808    1.4018   -2.0399 H   0  0  0  0  0  0  0  0  0  0  0  0
    3.9838   -2.4504    0.7514 H   0  0  0  0  0  0  0  0  0  0  0  0
   -5.3960    0.6089    2.1922 H   0  0  0  0  0  0  0  0  0  0  0  0
    5.6217   -1.3225    2.2119 H   0  0  0  0  0  0  0  0  0  0  0  0
    6.3229    0.9489    1.7726 H   0  0  0  0  0  0  0  0  0  0  0  0
   -7.2683    2.1955   -0.9966 H   0  0  0  0  0  0  0  0  0  0  0  0
    6.5932    4.0769    0.2557 H   0  0  0  0  0  0  0  0  0  0  0  0
    7.3592    2.5275    0.5895 H   0  0  0  0  0  0  0  0  0  0  0  0
    6.0034    3.1493    1.6306 H   0  0  0  0  0  0  0  0  0  0  0  0
  1 15  2  0  0  0  0
  2 21  1  0  0  0  0
  2 24  1  0  0  0  0
  3 12  1  0  0  0  0
  3 15  1  0  0  0  0
  3 30  1  0  0  0  0
  4  5  1  0  0  0  0
  4 18  1  0  0  0  0
  4 40  1  0  0  0  0
  5 20  2  0  0  0  0
  6  7  2  0  0  0  0
  6 10  1  0  0  0  0
  6 11  1  0  0  0  0
  7  9  1  0  0  0  0
  7 16  1  0  0  0  0
  8  9  2  0  0  0  0
  8 13  1  0  0  0  0
  8 15  1  0  0  0  0
  9 25  1  0  0  0  0
 10 13  2  0  0  0  0
 10 26  1  0  0  0  0
 11 18  2  0  0  0  0
 11 20  1  0  0  0  0
 12 14  1  0  0  0  0
 12 27  1  0  0  0  0
 12 28  1  0  0  0  0
 13 29  1  0  0  0  0
 14 17  2  0  0  0  0
 14 19  1  0  0  0  0
 16 31  1  0  0  0  0
 16 32  1  0  0  0  0
 16 33  1  0  0  0  0
 17 21  1  0  0  0  0
 17 34  1  0  0  0  0
 18 35  1  0  0  0  0
 19 22  2  0  0  0  0
 19 36  1  0  0  0  0
 20 37  1  0  0  0  0
 21 23  2  0  0  0  0
 22 23  1  0  0  0  0
 22 38  1  0  0  0  0
 23 39  1  0  0  0  0
 24 41  1  0  0  0  0
 24 42  1  0  0  0  0
 24 43  1  0  0  0  0
M  END
> <PUBCHEM_COMPOUND_CID>
90354052

> <PUBCHEM_CONFORMER_RMSD>
0.8

> <PUBCHEM_CONFORMER_DIVERSEORDER>
3
29
25
26
34
52
42
54
37
17
14
8
30
38
40
2
24
56
53
10
6
19
48
44
9
7
45
31
47
51
39
13
58
21
1
16
57
11
33
49
22
20
18
50
28
43
55
46
36
4
5
35
23
32
12
15
41
27

> <PUBCHEM_MMFF94_PARTIAL_CHARGES>
35
1 -0.57
10 -0.15
11 -0.05
12 0.44
13 -0.15
14 -0.14
15 0.54
16 0.14
17 -0.15
18 -0.3
19 -0.15
2 -0.36
20 0.14
21 0.08
22 -0.15
23 -0.15
24 0.28
25 0.15
26 0.15
29 0.15
3 -0.73
30 0.37
34 0.15
35 0.15
36 0.15
37 0.15
38 0.15
39 0.15
4 0.3
40 0.27
5 -0.71
6 0.05
7 -0.14
8 0.09
9 -0.15

> <PUBCHEM_EFFECTIVE_ROTOR_COUNT>
6

> <PUBCHEM_PHARMACOPHORE_FEATURES>
8
1 1 acceptor
1 2 acceptor
1 3 donor
1 4 donor
1 5 acceptor
5 4 5 11 18 20 rings
6 14 17 19 21 22 23 rings
6 6 7 8 9 10 13 rings

> <PUBCHEM_HEAVY_ATOM_COUNT>
24

> <PUBCHEM_ATOM_DEF_STEREO_COUNT>
0

> <PUBCHEM_ATOM_UDEF_STEREO_COUNT>
0

> <PUBCHEM_BOND_DEF_STEREO_COUNT>
0

> <PUBCHEM_BOND_UDEF_STEREO_COUNT>
0

> <PUBCHEM_ISOTOPIC_ATOM_COUNT>
0

> <PUBCHEM_COMPONENT_COUNT>
1

> <PUBCHEM_CACTVS_TAUTO_COUNT>
7

> <PUBCHEM_CONFORMER_ID>
0562B18400000003

> <PUBCHEM_MMFF94_ENERGY>
68.8961

> <PUBCHEM_FEATURE_SELFOVERLAP>
40.597

> <PUBCHEM_SHAPE_FINGERPRINT>
10 15 18113907065371025785
10906281 52 17632027355861706593
11524674 6 14490479677617196497
12166972 35 11314321529007967647
12422481 6 17240765043178858327
12596602 18 18186517739506267930
12616971 3 16009036102617450671
13533116 47 17604428484085752314
13551218 46 10665232561822222585
13685833 64 11097859592441548814
13782708 43 11097860704943768217
13955234 65 18190462649472257322
14123256 34 11025785484597681408
14216079 64 8430312433851798929
14528608 73 15769771338441689462
15183329 4 17846779611422724329
15348495 7 18187086165221510898
15475509 35 11891328777603641412
15519825 34 16444200888010294753
17349148 13 13262685811307916127
17980427 23 18334013934343346671
20281389 69 18260267426173540797
20511986 3 18040423391930644135
20715895 44 18410573955245176012
21033648 29 18342450491632369858
21150785 3 16558457631248788605
21315764 268 18261950739552143060
21344244 78 16008751320842782180
21641784 216 15554174683325498699
21792934 111 17677332689698522397
21859007 373 17097198438490863773
22849339 104 14117221910799343765
22950370 63 9367349253586422638
23559900 14 18266197066370240854
270888 7 18271242841742496428
2748736 6 18343299249773390937
2838139 119 18340198605370796981
2916195 48 18408325467325756877
312425 54 17385719214635329410
3472631 163 18342738528976334278
34797466 226 17775014483192827783
3680242 22 18186806850618533520
397830 11 18334868246309383483
4340502 62 17386013815037624451
465052 167 11458423531697202610
5104073 3 18186804698702957138
5364581 5 18116158946747300905
54039377 194 10665213836514288544
5718773 13 9006797371253690364
59682541 52 16056613032272820604
86090 222 13984939555456207800
960060 61 10807932678738910386

> <PUBCHEM_SHAPE_MULTIPOLES>
467.23
18.32
2.64
1.15
0.94
0.65
0.01
13.64
-4.25
-1.79
-0.27
-0.43
-0.1
0.74

> <PUBCHEM_SHAPE_SELFOVERLAP>
1015.714

> <PUBCHEM_SHAPE_VOLUME>
256.8

> <PUBCHEM_COORDINATE_TYPE>
2
5
10

$$$$
118663012
  -OEChem-05102415143D

 50 52  0     0  0  0  0  0  0999 V2000
    4.5428    2.0297   -0.4586 O   0  0  0  0  0  0  0  0  0  0  0  0
   -0.4046    1.3665   -1.3275 O   0  0  0  0  0  0  0  0  0  0  0  0
   -7.3888   -0.2680    1.1582 O   0  0  0  0  0  0  0  0  0  0  0  0
   -0.5411   -0.9167   -1.7084 N   0  0  0  0  0  0  0  0  0  0  0  0
   -5.4087    0.9128    0.6535 N   0  0  0  0  0  0  0  0  0  0  0  0
    7.3551    0.0126    1.5884 N   0  0  0  0  0  0  0  0  0  0  0  0
    7.4110   -1.3061    1.3354 N   0  0  0  0  0  0  0  0  0  0  0  0
   -2.9212   -1.0976   -1.1894 C   0  0  0  0  0  0  0  0  0  0  0  0
   -1.8791   -0.9160   -2.2548 C   0  0  0  0  0  0  0  0  0  0  0  0
   -4.6487   -0.1768    0.2266 C   0  0  0  0  0  0  0  0  0  0  0  0
   -3.6806   -0.0079   -0.7632 C   0  0  0  0  0  0  0  0  0  0  0  0
    1.4731    0.0768   -0.7717 C   0  0  0  0  0  0  0  0  0  0  0  0
    4.0711   -0.2344    0.1964 C   0  0  0  0  0  0  0  0  0  0  0  0
    3.6776    0.9795   -0.3673 C   0  0  0  0  0  0  0  0  0  0  0  0
   -3.1299   -2.3564   -0.6255 C   0  0  0  0  0  0  0  0  0  0  0  0
    0.1183    0.2393   -1.2746 C   0  0  0  0  0  0  0  0  0  0  0  0
    2.3786    1.1350   -0.8513 C   0  0  0  0  0  0  0  0  0  0  0  0
   -4.8576   -1.4356    0.7905 C   0  0  0  0  0  0  0  0  0  0  0  0
    1.8667   -1.1370   -0.2081 C   0  0  0  0  0  0  0  0  0  0  0  0
    3.1657   -1.2926    0.2757 C   0  0  0  0  0  0  0  0  0  0  0  0
    5.4048   -0.4157    0.7030 C   0  0  0  0  0  0  0  0  0  0  0  0
   -4.0980   -2.5252    0.3645 C   0  0  0  0  0  0  0  0  0  0  0  0
   -4.7612    2.2607    0.6930 C   0  0  0  0  0  0  0  0  0  0  0  0
   -6.7555    0.7905    1.1416 C   0  0  0  0  0  0  0  0  0  0  0  0
    6.1746    0.5934    1.2281 C   0  0  0  0  0  0  0  0  0  0  0  0
    6.2168   -1.5620    0.7946 C   0  0  0  0  0  0  0  0  0  0  0  0
   -7.4264    2.0238    1.7018 C   0  0  0  0  0  0  0  0  0  0  0  0
    4.0453    3.2274   -1.0507 C   0  0  0  0  0  0  0  0  0  0  0  0
   -1.9419   -1.7333   -2.9824 H   0  0  0  0  0  0  0  0  0  0  0  0
   -2.0409    0.0163   -2.8081 H   0  0  0  0  0  0  0  0  0  0  0  0
   -3.5179    0.9610   -1.2288 H   0  0  0  0  0  0  0  0  0  0  0  0
   -0.0625   -1.8110   -1.6977 H   0  0  0  0  0  0  0  0  0  0  0  0
   -2.5422   -3.2121   -0.9473 H   0  0  0  0  0  0  0  0  0  0  0  0
    2.0214    2.0531   -1.3048 H   0  0  0  0  0  0  0  0  0  0  0  0
   -5.5572   -1.6075    1.6018 H   0  0  0  0  0  0  0  0  0  0  0  0
    3.4414   -2.2448    0.7225 H   0  0  0  0  0  0  0  0  0  0  0  0
    1.1850   -1.9748   -0.0952 H   0  0  0  0  0  0  0  0  0  0  0  0
   -4.2508   -3.5028    0.8124 H   0  0  0  0  0  0  0  0  0  0  0  0
   -5.0305    2.7943   -0.2232 H   0  0  0  0  0  0  0  0  0  0  0  0
   -3.6738    2.1662    0.7745 H   0  0  0  0  0  0  0  0  0  0  0  0
   -5.0972    2.8346    1.5586 H   0  0  0  0  0  0  0  0  0  0  0  0
    6.0127    1.6449    1.4173 H   0  0  0  0  0  0  0  0  0  0  0  0
    5.9972   -2.5756    0.4896 H   0  0  0  0  0  0  0  0  0  0  0  0
    8.1594    0.4534    2.0170 H   0  0  0  0  0  0  0  0  0  0  0  0
   -7.3633    2.8534    0.9932 H   0  0  0  0  0  0  0  0  0  0  0  0
   -8.4863    1.8136    1.8762 H   0  0  0  0  0  0  0  0  0  0  0  0
   -6.9679    2.2966    2.6556 H   0  0  0  0  0  0  0  0  0  0  0  0
    4.8644    3.9542   -1.0388 H   0  0  0  0  0  0  0  0  0  0  0  0
    3.2305    3.6630   -0.4622 H   0  0  0  0  0  0  0  0  0  0  0  0
    3.7733    3.0780   -2.1012 H   0  0  0  0  0  0  0  0  0  0  0  0
  1 14  1  0  0  0  0
  1 28  1  0  0  0  0
  2 16  2  0  0  0  0
  3 24  2  0  0  0  0
  4  9  1  0  0  0  0
  4 16  1  0  0  0  0
  4 32  1  0  0  0  0
  5 10  1  0  0  0  0
  5 23  1  0  0  0  0
  5 24  1  0  0  0  0
  6  7  1  0  0  0  0
  6 25  1  0  0  0  0
  6 44  1  0  0  0  0
  7 26  2  0  0  0  0
  8  9  1  0  0  0  0
  8 11  2  0  0  0  0
  8 15  1  0  0  0  0
  9 29  1  0  0  0  0
  9 30  1  0  0  0  0
 10 11  1  0  0  0  0
 10 18  2  0  0  0  0
 11 31  1  0  0  0  0
 12 16  1  0  0  0  0
 12 17  2  0  0  0  0
 12 19  1  0  0  0  0
 13 14  2  0  0  0  0
 13 20  1  0  0  0  0
 13 21  1  0  0  0  0
 14 17  1  0  0  0  0
 15 22  2  0  0  0  0
 15 33  1  0  0  0  0
 17 34  1  0  0  0  0
 18 22  1  0  0  0  0
 18 35  1  0  0  0  0
 19 20  2  0  0  0  0
 19 37  1  0  0  0  0
 20 36  1  0  0  0  0
 21 25  2  0  0  0  0
 21 26  1  0  0  0  0
 22 38  1  0  0  0  0
 23 39  1  0  0  0  0
 23 40  1  0  0  0  0
 23 41  1  0  0  0  0
 24 27  1  0  0  0  0
 25 42  1  0  0  0  0
 26 43  1  0  0  0  0
 27 45  1  0  0  0  0
 27 46  1  0  0  0  0
 27 47  1  0  0  0  0
 28 48  1  0  0  0  0
 28 49  1  0  0  0  0
 28 50  1  0  0  0  0
M  END
> <PUBCHEM_COMPOUND_CID>
118663012

> <PUBCHEM_CONFORMER_RMSD>
1

> <PUBCHEM_CONFORMER_DIVERSEORDER>
95
143
96
135
38
48
55
93
144
2
97
140
59
126
132
9
17
10
65
89
90
29
111
119
80
63
1
46
113
139
43
70
61
47
24
19
25
141
128
115
73
103
98
131
68
18
27
74
92
23
142
69
117
129
124
78
134
8
56
138
66
85
42
60
53
15
71
32
13
145
94
147
106
123
34
116
81
67
39
83
51
88
54
105
36
30
45
7
133
79
82
114
122
118
101
99
64
104
16
35
100
22
72
62
31
108
44
21
125
58
121
41
137
3
76
49
14
11
37
20
77
109
12
146
130
75
112
127
87
136
57
110
84
86
40
91
4
120
50
28
5
52
6
102
26
33
107

> <PUBCHEM_MMFF94_PARTIAL_CHARGES>
39
1 -0.36
10 0.12
11 -0.15
12 0.09
13 0.05
14 0.08
15 -0.15
16 0.54
17 -0.15
18 -0.15
19 -0.15
2 -0.57
20 -0.15
21 -0.05
22 -0.15
23 0.3
24 0.57
25 -0.3
26 0.14
27 0.06
28 0.28
3 -0.57
31 0.15
32 0.37
33 0.15
34 0.15
35 0.15
36 0.15
37 0.15
38 0.15
4 -0.73
42 0.15
43 0.15
44 0.27
5 -0.48
6 0.3
7 -0.71
8 -0.14
9 0.44

> <PUBCHEM_EFFECTIVE_ROTOR_COUNT>
8

> <PUBCHEM_PHARMACOPHORE_FEATURES>
9
1 1 acceptor
1 2 acceptor
1 3 acceptor
1 4 donor
1 6 donor
1 7 acceptor
5 6 7 21 25 26 rings
6 12 13 14 17 19 20 rings
6 8 10 11 15 18 22 rings

> <PUBCHEM_HEAVY_ATOM_COUNT>
28

> <PUBCHEM_ATOM_DEF_STEREO_COUNT>
0

> <PUBCHEM_ATOM_UDEF_STEREO_COUNT>
0

> <PUBCHEM_BOND_DEF_STEREO_COUNT>
0

> <PUBCHEM_BOND_UDEF_STEREO_COUNT>
0

> <PUBCHEM_ISOTOPIC_ATOM_COUNT>
0

> <PUBCHEM_COMPONENT_COUNT>
1

> <PUBCHEM_CACTVS_TAUTO_COUNT>
18

> <PUBCHEM_CONFORMER_ID>
0712A7640000005F

> <PUBCHEM_MMFF94_ENERGY>
98.4189

> <PUBCHEM_FEATURE_SELFOVERLAP>
45.673

> <PUBCHEM_SHAPE_FINGERPRINT>
10 15 18131069341894130280
10554248 39 13830137196200058404
10693767 8 8213605332459141224
12107183 9 18409449167650356627
12422481 6 18273210890067398398
12596602 18 18260553368069045057
12616971 3 18411132580451185518
12778500 126 17917988361588875562
13673619 4 16225765211644209926
13690498 29 11314029093680866515
13782708 43 16370989799190861770
14849402 71 18188491410582559196
14931854 50 9295288314211731993
14950920 106 18262232330345088871
15142383 8 17561361773683310114
15238133 3 17917430960274277300
15352257 5 15647054850092284650
15461852 350 16630517475237630829
16110190 28 18409451401434322805
16993427 108 17835801177484484215
17134984 74 9079106744178460484
17780758 139 18335698360487528007
18643901 69 11818997366678864571
21033648 29 17203339909526790831
21065198 48 18337675338154933111
21150785 3 8358257055721434226
21307412 95 11386665065643065209
21403212 168 18260266305772606471
21585481 104 12247137260275379971
2303208 19 16588013624483877702
23522609 53 17896623785135181396
249057 25 18129651040656013669
2838139 119 17489299781472341801
312425 54 18113900502233827291
3178227 256 17967811644427605506
3663271 9 18336265764042174784
392239 28 17968088742088907654
4107672 100 8862672279352352923
5104073 3 18263641921500182888
58083652 198 17968646224517638117
999808 66 15936412230242595107

> <PUBCHEM_SHAPE_MULTIPOLES>
538.69
21.74
2.56
1.67
0.38
0.9
0.28
3.69
-15.55
1.06
0.13
0.25
0.09
-2.99

> <PUBCHEM_SHAPE_SELFOVERLAP>
1162.371

> <PUBCHEM_SHAPE_VOLUME>
297.1

> <PUBCHEM_COORDINATE_TYPE>
2
5
10

$$$$
118662988
  -OEChem-05102415143D

 46 48  0     1  0  0  0  0  0999 V2000
   -5.3337   -3.4476    1.2428 F   0  0  0  0  0  0  0  0  0  0  0  0
    2.4256   -1.3703   -1.3252 O   0  0  0  0  0  0  0  0  0  0  0  0
   -0.9671    2.4583    1.6358 O   0  0  0  0  0  0  0  0  0  0  0  0
   -1.4984    1.6793   -0.4826 N   0  0  0  0  0  0  0  0  0  0  0  0
    6.5500   -1.1352    0.6109 N   0  0  0  0  0  0  0  0  0  0  0  0
    6.6521   -0.9236   -0.7123 N   0  0  0  0  0  0  0  0  0  0  0  0
   -2.8527    2.1833   -0.5119 C   0  0  2  0  0  0  0  0  0  0  0  0
   -3.7619    1.2939   -1.3745 C   0  0  0  0  0  0  0  0  0  0  0  0
   -4.1823    0.0241   -0.6731 C   0  0  0  0  0  0  0  0  0  0  0  0
   -2.8551    3.6186   -1.0287 C   0  0  0  0  0  0  0  0  0  0  0  0
   -0.6606    1.8637    0.6057 C   0  0  0  0  0  0  0  0  0  0  0  0
    0.7103    1.3080    0.4689 C   0  0  0  0  0  0  0  0  0  0  0  0
   -5.3486    0.0037    0.0920 C   0  0  0  0  0  0  0  0  0  0  0  0
   -3.4051   -1.1282   -0.7908 C   0  0  0  0  0  0  0  0  0  0  0  0
    3.2857    0.2672    0.2099 C   0  0  0  0  0  0  0  0  0  0  0  0
    0.9408    0.2174   -0.3698 C   0  0  0  0  0  0  0  0  0  0  0  0
    2.2284   -0.3029   -0.4994 C   0  0  0  0  0  0  0  0  0  0  0  0
    1.7675    1.8781    1.1782 C   0  0  0  0  0  0  0  0  0  0  0  0
    3.0551    1.3576    1.0488 C   0  0  0  0  0  0  0  0  0  0  0  0
    4.6214   -0.2524    0.0896 C   0  0  0  0  0  0  0  0  0  0  0  0
   -5.7374   -1.1691    0.7395 C   0  0  0  0  0  0  0  0  0  0  0  0
   -3.7937   -2.3008   -0.1431 C   0  0  0  0  0  0  0  0  0  0  0  0
   -4.9599   -2.3213    0.6221 C   0  0  0  0  0  0  0  0  0  0  0  0
    5.3531   -0.7503    1.1400 C   0  0  0  0  0  0  0  0  0  0  0  0
    5.4709   -0.3842   -1.0251 C   0  0  0  0  0  0  0  0  0  0  0  0
    2.2956   -2.6671   -0.7475 C   0  0  0  0  0  0  0  0  0  0  0  0
   -3.2316    2.2051    0.5181 H   0  0  0  0  0  0  0  0  0  0  0  0
   -3.2757    1.0453   -2.3273 H   0  0  0  0  0  0  0  0  0  0  0  0
   -4.6729    1.8440   -1.6465 H   0  0  0  0  0  0  0  0  0  0  0  0
   -1.1390    1.2785   -1.3426 H   0  0  0  0  0  0  0  0  0  0  0  0
   -2.4719    3.6704   -2.0540 H   0  0  0  0  0  0  0  0  0  0  0  0
   -3.8668    4.0374   -1.0202 H   0  0  0  0  0  0  0  0  0  0  0  0
   -2.2214    4.2618   -0.4082 H   0  0  0  0  0  0  0  0  0  0  0  0
   -5.9616    0.8953    0.1932 H   0  0  0  0  0  0  0  0  0  0  0  0
   -2.4950   -1.1259   -1.3846 H   0  0  0  0  0  0  0  0  0  0  0  0
    0.1354   -0.2687   -0.9136 H   0  0  0  0  0  0  0  0  0  0  0  0
    1.6092    2.7317    1.8320 H   0  0  0  0  0  0  0  0  0  0  0  0
    3.8656    1.8211    1.6067 H   0  0  0  0  0  0  0  0  0  0  0  0
   -6.6450   -1.1854    1.3355 H   0  0  0  0  0  0  0  0  0  0  0  0
   -3.1887   -3.1981   -0.2345 H   0  0  0  0  0  0  0  0  0  0  0  0
    5.1410   -0.8676    2.1937 H   0  0  0  0  0  0  0  0  0  0  0  0
    5.2826   -0.1105   -2.0538 H   0  0  0  0  0  0  0  0  0  0  0  0
    7.3386   -1.5481    1.0930 H   0  0  0  0  0  0  0  0  0  0  0  0
    2.5326   -3.4087   -1.5153 H   0  0  0  0  0  0  0  0  0  0  0  0
    1.2675   -2.8316   -0.4094 H   0  0  0  0  0  0  0  0  0  0  0  0
    2.9892   -2.7975    0.0888 H   0  0  0  0  0  0  0  0  0  0  0  0
  1 23  1  0  0  0  0
  2 17  1  0  0  0  0
  2 26  1  0  0  0  0
  3 11  2  0  0  0  0
  4  7  1  0  0  0  0
  4 11  1  0  0  0  0
  4 30  1  0  0  0  0
  5  6  1  0  0  0  0
  5 24  1  0  0  0  0
  5 43  1  0  0  0  0
  6 25  2  0  0  0  0
  7  8  1  0  0  0  0
  7 10  1  0  0  0  0
  7 27  1  0  0  0  0
  8  9  1  0  0  0  0
  8 28  1  0  0  0  0
  8 29  1  0  0  0  0
  9 13  2  0  0  0  0
  9 14  1  0  0  0  0
 10 31  1  0  0  0  0
 10 32  1  0  0  0  0
 10 33  1  0  0  0  0
 11 12  1  0  0  0  0
 12 16  2  0  0  0  0
 12 18  1  0  0  0  0
 13 21  1  0  0  0  0
 13 34  1  0  0  0  0
 14 22  2  0  0  0  0
 14 35  1  0  0  0  0
 15 17  2  0  0  0  0
 15 19  1  0  0  0  0
 15 20  1  0  0  0  0
 16 17  1  0  0  0  0
 16 36  1  0  0  0  0
 18 19  2  0  0  0  0
 18 37  1  0  0  0  0
 19 38  1  0  0  0  0
 20 24  2  0  0  0  0
 20 25  1  0  0  0  0
 21 23  2  0  0  0  0
 21 39  1  0  0  0  0
 22 23  1  0  0  0  0
 22 40  1  0  0  0  0
 24 41  1  0  0  0  0
 25 42  1  0  0  0  0
 26 44  1  0  0  0  0
 26 45  1  0  0  0  0
 26 46  1  0  0  0  0
M  END
> <PUBCHEM_COMPOUND_CID>
118662988

> <PUBCHEM_CONFORMER_RMSD>
0.8

> <PUBCHEM_CONFORMER_DIVERSEORDER>
1
48
83
29
53
69
24
51
59
26
31
10
38
13
27
58
63
75
77
3
47
8
32
60
76
50
67
22
71
82
21
52
28
62
65
79
6
23
19
16
36
78
5
61
40
64
85
44
86
68
14
4
17
18
80
11
66
25
9
70
30
57
34
7
39
81
49
12
42
2
72
43
45
54
46
74
73
41
55
33
84
15
56
20
37
35

> <PUBCHEM_MMFF94_PARTIAL_CHARGES>
36
1 -0.19
11 0.54
12 0.09
13 -0.15
14 -0.15
15 0.05
16 -0.15
17 0.08
18 -0.15
19 -0.15
2 -0.36
20 -0.05
21 -0.15
22 -0.15
23 0.19
24 -0.3
25 0.14
26 0.28
3 -0.57
30 0.37
34 0.15
35 0.15
36 0.15
37 0.15
38 0.15
39 0.15
4 -0.73
40 0.15
41 0.15
42 0.15
43 0.27
5 0.3
6 -0.71
7 0.3
8 0.14
9 -0.14

> <PUBCHEM_EFFECTIVE_ROTOR_COUNT>
7

> <PUBCHEM_PHARMACOPHORE_FEATURES>
8
1 2 acceptor
1 3 acceptor
1 4 donor
1 5 donor
1 6 acceptor
5 5 6 20 24 25 rings
6 12 15 16 17 18 19 rings
6 9 13 14 21 22 23 rings

> <PUBCHEM_HEAVY_ATOM_COUNT>
26

> <PUBCHEM_ATOM_DEF_STEREO_COUNT>
0

> <PUBCHEM_ATOM_UDEF_STEREO_COUNT>
1

> <PUBCHEM_BOND_DEF_STEREO_COUNT>
0

> <PUBCHEM_BOND_UDEF_STEREO_COUNT>
0

> <PUBCHEM_ISOTOPIC_ATOM_COUNT>
0

> <PUBCHEM_COMPONENT_COUNT>
1

> <PUBCHEM_CACTVS_TAUTO_COUNT>
18

> <PUBCHEM_CONFORMER_ID>
0712A74C00000001

> <PUBCHEM_MMFF94_ENERGY>
70.6252

> <PUBCHEM_FEATURE_SELFOVERLAP>
40.597

> <PUBCHEM_SHAPE_FINGERPRINT>
10290309 65 18269276755753952783
11135609 12 18411705374211400417
11135609 99 18193267500162711482
117089 54 17825400836577302139
11796584 16 18189325776112974210
11809386 21 18188481393858241361
11963148 33 18410568479563800766
12166972 35 17603589668065962550
12633257 1 17346319366457589285
12760667 363 18272928332742948301
13402501 40 18412828014449334623
13631057 29 18408882932168299079
14211702 104 18270118986214089886
14251751 18 18408323302055714684
14251764 30 18188213229565754515
14420673 8 18408889572989741731
14617045 38 18413109437981071703
14790565 3 17119156059397628376
14950920 106 16701740587617041347
15183329 4 15502371223532834794
15361156 5 18342731932218363021
17780758 139 18060422417644440185
20505436 4 16735227094836517817
21150785 3 17530971293750483300
21307412 95 18262506114106556895
21403212 168 18271535209288747561
21781051 124 18130796616953381422
221490 88 18341889714489795008
23559900 14 18339910584843490433
2838139 119 8934999239693218787
3089732 80 18412263951772167123
329604 57 18409171030137496316
4073 2 18342172216084878896
4107672 100 17313094243133857271
439807 62 18113899368842684339
445580 160 18342460309674758358
484985 159 18411138022749807865
484989 97 18341057389246939630
5104073 3 18202275892958938488
54583773 228 18335990853015273820
57307002 85 18335717047647984258
59755656 215 18341328903266258199
6371380 46 18342451501330181129
6700243 42 18124627234943725772
7495541 125 18409726270909847428
8863177 126 18339921627129860570
9862886 166 18334857207884541314

> <PUBCHEM_SHAPE_MULTIPOLES>
501.11
15.64
3.41
1.28
7.66
0.25
0.08
-10.33
0.76
-4.8
0.21
0.02
0.18
2.36

> <PUBCHEM_SHAPE_SELFOVERLAP>
1081.809

> <PUBCHEM_SHAPE_VOLUME>
277.2

> <PUBCHEM_COORDINATE_TYPE>
2
5
10

$$$$
85470509
  -OEChem-05102415143D

 40 42  0     0  0  0  0  0  0999 V2000
    4.7071   -2.7801   -0.2350 F   0  0  0  0  0  0  0  0  0  0  0  0
    6.4011   -1.6012    1.5588 F   0  0  0  0  0  0  0  0  0  0  0  0
   -2.5911   -1.7916   -0.7567 O   0  0  0  0  0  0  0  0  0  0  0  0
    1.0830    2.6324    0.5762 O   0  0  0  0  0  0  0  0  0  0  0  0
    1.4512    1.1873   -1.1996 N   0  0  0  0  0  0  0  0  0  0  0  0
   -6.8310   -0.3301    0.0812 N   0  0  0  0  0  0  0  0  0  0  0  0
   -6.5280   -1.3519    0.9000 N   0  0  0  0  0  0  0  0  0  0  0  0
   -3.3134    0.3035    0.1742 C   0  0  0  0  0  0  0  0  0  0  0  0
   -0.7035    1.2582   -0.0708 C   0  0  0  0  0  0  0  0  0  0  0  0
   -2.3168   -0.5181   -0.3527 C   0  0  0  0  0  0  0  0  0  0  0  0
    2.8283    1.5578   -1.4346 C   0  0  0  0  0  0  0  0  0  0  0  0
   -1.0118   -0.0407   -0.4751 C   0  0  0  0  0  0  0  0  0  0  0  0
   -4.6648   -0.1691    0.3109 C   0  0  0  0  0  0  0  0  0  0  0  0
   -3.0051    1.6026    0.5782 C   0  0  0  0  0  0  0  0  0  0  0  0
   -1.7002    2.0799    0.4560 C   0  0  0  0  0  0  0  0  0  0  0  0
    3.7809    0.7153   -0.6365 C   0  0  0  0  0  0  0  0  0  0  0  0
    0.6573    1.7556   -0.1966 C   0  0  0  0  0  0  0  0  0  0  0  0
   -5.7502    0.4092   -0.3007 C   0  0  0  0  0  0  0  0  0  0  0  0
    3.8020   -0.6687   -0.8102 C   0  0  0  0  0  0  0  0  0  0  0  0
    4.6451    1.3166    0.2787 C   0  0  0  0  0  0  0  0  0  0  0  0
   -5.2034   -1.2485    1.0367 C   0  0  0  0  0  0  0  0  0  0  0  0
    4.6870   -1.4513   -0.0685 C   0  0  0  0  0  0  0  0  0  0  0  0
    5.5299    0.5340    1.0205 C   0  0  0  0  0  0  0  0  0  0  0  0
    5.5509   -0.8500    0.8469 C   0  0  0  0  0  0  0  0  0  0  0  0
   -1.5046   -2.5512   -1.2813 C   0  0  0  0  0  0  0  0  0  0  0  0
    2.9511    2.6221   -1.2043 H   0  0  0  0  0  0  0  0  0  0  0  0
    3.0314    1.4284   -2.5036 H   0  0  0  0  0  0  0  0  0  0  0  0
   -0.2060   -0.6660   -0.8371 H   0  0  0  0  0  0  0  0  0  0  0  0
   -3.7656    2.2589    0.9951 H   0  0  0  0  0  0  0  0  0  0  0  0
   -1.4806    3.0959    0.7738 H   0  0  0  0  0  0  0  0  0  0  0  0
    1.0529    0.5147   -1.8460 H   0  0  0  0  0  0  0  0  0  0  0  0
    3.1371   -1.1504   -1.5222 H   0  0  0  0  0  0  0  0  0  0  0  0
    4.6396    2.3933    0.4254 H   0  0  0  0  0  0  0  0  0  0  0  0
   -5.8561    1.2596   -0.9602 H   0  0  0  0  0  0  0  0  0  0  0  0
   -4.6895   -1.9658    1.6612 H   0  0  0  0  0  0  0  0  0  0  0  0
    6.2026    1.0016    1.7334 H   0  0  0  0  0  0  0  0  0  0  0  0
   -7.8000   -0.1944   -0.1784 H   0  0  0  0  0  0  0  0  0  0  0  0
   -0.7346   -2.7342   -0.5239 H   0  0  0  0  0  0  0  0  0  0  0  0
   -1.1001   -2.1053   -2.1965 H   0  0  0  0  0  0  0  0  0  0  0  0
   -1.9062   -3.5309   -1.5618 H   0  0  0  0  0  0  0  0  0  0  0  0
  1 22  1  0  0  0  0
  2 24  1  0  0  0  0
  3 10  1  0  0  0  0
  3 25  1  0  0  0  0
  4 17  2  0  0  0  0
  5 11  1  0  0  0  0
  5 17  1  0  0  0  0
  5 31  1  0  0  0  0
  6  7  1  0  0  0  0
  6 18  1  0  0  0  0
  6 37  1  0  0  0  0
  7 21  2  0  0  0  0
  8 10  2  0  0  0  0
  8 13  1  0  0  0  0
  8 14  1  0  0  0  0
  9 12  2  0  0  0  0
  9 15  1  0  0  0  0
  9 17  1  0  0  0  0
 10 12  1  0  0  0  0
 11 16  1  0  0  0  0
 11 26  1  0  0  0  0
 11 27  1  0  0  0  0
 12 28  1  0  0  0  0
 13 18  2  0  0  0  0
 13 21  1  0  0  0  0
 14 15  2  0  0  0  0
 14 29  1  0  0  0  0
 15 30  1  0  0  0  0
 16 19  2  0  0  0  0
 16 20  1  0  0  0  0
 18 34  1  0  0  0  0
 19 22  1  0  0  0  0
 19 32  1  0  0  0  0
 20 23  2  0  0  0  0
 20 33  1  0  0  0  0
 21 35  1  0  0  0  0
 22 24  2  0  0  0  0
 23 24  1  0  0  0  0
 23 36  1  0  0  0  0
 25 38  1  0  0  0  0
 25 39  1  0  0  0  0
 25 40  1  0  0  0  0
M  END
> <PUBCHEM_COMPOUND_CID>
85470509

> <PUBCHEM_CONFORMER_RMSD>
0.8

> <PUBCHEM_CONFORMER_DIVERSEORDER>
14
3
33
19
30
5
50
24
42
34
2
47
40
41
37
29
43
15
17
8
13
46
7
21
35
10
22
12
23
4
48
45
32
49
36
51
6
1
20
16
26
27
25
31
44
9
28
18
39
38
11

> <PUBCHEM_MMFF94_PARTIAL_CHARGES>
35
1 -0.19
10 0.08
11 0.44
12 -0.15
13 -0.05
14 -0.15
15 -0.15
16 -0.14
17 0.54
18 -0.3
19 -0.15
2 -0.19
20 -0.15
21 0.14
22 0.19
23 -0.15
24 0.19
25 0.28
28 0.15
29 0.15
3 -0.36
30 0.15
31 0.37
32 0.15
33 0.15
34 0.15
35 0.15
36 0.15
37 0.27
4 -0.57
5 -0.73
6 0.3
7 -0.71
8 0.05
9 0.09

> <PUBCHEM_EFFECTIVE_ROTOR_COUNT>
6

> <PUBCHEM_PHARMACOPHORE_FEATURES>
8
1 3 acceptor
1 4 acceptor
1 5 donor
1 6 donor
1 7 acceptor
5 6 7 13 18 21 rings
6 16 19 20 22 23 24 rings
6 8 9 10 12 14 15 rings

> <PUBCHEM_HEAVY_ATOM_COUNT>
25

> <PUBCHEM_ATOM_DEF_STEREO_COUNT>
0

> <PUBCHEM_ATOM_UDEF_STEREO_COUNT>
0

> <PUBCHEM_BOND_DEF_STEREO_COUNT>
0

> <PUBCHEM_BOND_UDEF_STEREO_COUNT>
0

> <PUBCHEM_ISOTOPIC_ATOM_COUNT>
0

> <PUBCHEM_COMPONENT_COUNT>
1

> <PUBCHEM_CACTVS_TAUTO_COUNT>
9

> <PUBCHEM_CONFORMER_ID>
05182D2D0000000E

> <PUBCHEM_MMFF94_ENERGY>
66.4802

> <PUBCHEM_FEATURE_SELFOVERLAP>
40.597

> <PUBCHEM_SHAPE_FINGERPRINT>
11796584 16 17603867844703007721
12236239 1 18259704505926447705
12633257 1 16774069696327914728
13533116 47 18410014359851207896
13551218 46 18412547595891920247
13782708 43 17022907899677801771
13862211 1 18343303704244800919
13914758 101 17967249763900214629
14211702 104 18188502362258248379
14251740 57 18341339881877958494
14341114 176 18131632284054409864
14528608 73 9511460004855150784
15183329 4 16588021299416647877
15188451 53 18335697217889103448
17492 89 18194966245400154858
17857418 61 18412826910515736269
1813 80 17749113270850900420
1979834 28 17846506911190533630
20028762 73 18335702702868860882
20567600 234 15482668013369479193
208703 8 17678723550296056514
21033648 29 15195292984234058376
21267235 1 18411707560824299886
21424621 283 14188757190197229699
21682296 61 18339652126844172623
21792934 111 18271802389839181145
21859007 373 18263346050253006717
221357 26 11891328747327717790
23366157 5 17907578382396558141
23559900 14 18114180908513020609
3004659 81 18334305270696798356
3383291 50 18410857668169607739
3472631 163 9655569721475085408
3680242 22 18342188751603193939
3886686 26 17405716878507303586
5104073 3 18129951078481728208
559249 180 18261107427118747625
5718773 13 17822564990135870658
59682541 52 15140950764523873585

> <PUBCHEM_SHAPE_MULTIPOLES>
473.26
16.76
2.54
1.14
1.95
0.51
-0.03
7.35
5.66
-1.25
-0.15
-0.78
0.18
-0.63

> <PUBCHEM_SHAPE_SELFOVERLAP>
1035.699

> <PUBCHEM_SHAPE_VOLUME>
257.7

> <PUBCHEM_COORDINATE_TYPE>
2
5
10

$$$$
90354045
  -OEChem-05102415143D

 40 42  0     0  0  0  0  0  0999 V2000
    3.4324    2.1477   -1.6761 Cl  0  0  0  0  0  0  0  0  0  0  0  0
    6.5484    1.1440    2.1771 F   0  0  0  0  0  0  0  0  0  0  0  0
   -2.5900    1.9261   -0.1712 O   0  0  0  0  0  0  0  0  0  0  0  0
    1.2888   -2.5303    0.0048 O   0  0  0  0  0  0  0  0  0  0  0  0
    1.5916   -0.6465   -1.3129 N   0  0  0  0  0  0  0  0  0  0  0  0
   -6.7521    0.0975    0.2067 N   0  0  0  0  0  0  0  0  0  0  0  0
   -6.5027    0.8915    1.2620 N   0  0  0  0  0  0  0  0  0  0  0  0
   -3.2073   -0.3689    0.1886 C   0  0  0  0  0  0  0  0  0  0  0  0
   -0.5533   -1.1035   -0.2584 C   0  0  0  0  0  0  0  0  0  0  0  0
   -2.2530    0.6064   -0.1013 C   0  0  0  0  0  0  0  0  0  0  0  0
    2.9713   -0.9036   -1.6585 C   0  0  0  0  0  0  0  0  0  0  0  0
   -0.9260    0.2390   -0.3248 C   0  0  0  0  0  0  0  0  0  0  0  0
   -4.5811   -0.0123    0.4207 C   0  0  0  0  0  0  0  0  0  0  0  0
   -2.8344   -1.7114    0.2553 C   0  0  0  0  0  0  0  0  0  0  0  0
   -1.5076   -2.0788    0.0316 C   0  0  0  0  0  0  0  0  0  0  0  0
    3.9205   -0.3284   -0.6474 C   0  0  0  0  0  0  0  0  0  0  0  0
    0.8297   -1.4870   -0.4931 C   0  0  0  0  0  0  0  0  0  0  0  0
   -5.6347   -0.4680   -0.3337 C   0  0  0  0  0  0  0  0  0  0  0  0
    4.1868    1.0397   -0.5887 C   0  0  0  0  0  0  0  0  0  0  0  0
    4.5419   -1.1988    0.2480 C   0  0  0  0  0  0  0  0  0  0  0  0
   -5.1750    0.8204    1.3879 C   0  0  0  0  0  0  0  0  0  0  0  0
    5.0747    1.5370    0.3653 C   0  0  0  0  0  0  0  0  0  0  0  0
    5.4301   -0.7015    1.2019 C   0  0  0  0  0  0  0  0  0  0  0  0
    5.6964    0.6665    1.2604 C   0  0  0  0  0  0  0  0  0  0  0  0
   -2.9953    2.4231   -1.4444 C   0  0  0  0  0  0  0  0  0  0  0  0
    3.1587   -0.4903   -2.6557 H   0  0  0  0  0  0  0  0  0  0  0  0
    3.1117   -1.9875   -1.7499 H   0  0  0  0  0  0  0  0  0  0  0  0
   -0.2038    1.0281   -0.5156 H   0  0  0  0  0  0  0  0  0  0  0  0
   -3.5613   -2.4878    0.4831 H   0  0  0  0  0  0  0  0  0  0  0  0
   -1.2384   -3.1306    0.0842 H   0  0  0  0  0  0  0  0  0  0  0  0
    1.1671    0.1675   -1.7441 H   0  0  0  0  0  0  0  0  0  0  0  0
    4.3451   -2.2672    0.2178 H   0  0  0  0  0  0  0  0  0  0  0  0
   -5.6960   -1.1269   -1.1889 H   0  0  0  0  0  0  0  0  0  0  0  0
   -4.6992    1.3799    2.1812 H   0  0  0  0  0  0  0  0  0  0  0  0
    5.2924    2.6003    0.4251 H   0  0  0  0  0  0  0  0  0  0  0  0
    5.9138   -1.3788    1.8994 H   0  0  0  0  0  0  0  0  0  0  0  0
   -7.7125   -0.0141   -0.0935 H   0  0  0  0  0  0  0  0  0  0  0  0
   -3.8584    1.8700   -1.8271 H   0  0  0  0  0  0  0  0  0  0  0  0
   -2.1669    2.3629   -2.1575 H   0  0  0  0  0  0  0  0  0  0  0  0
   -3.2785    3.4728   -1.3273 H   0  0  0  0  0  0  0  0  0  0  0  0
  1 19  1  0  0  0  0
  2 24  1  0  0  0  0
  3 10  1  0  0  0  0
  3 25  1  0  0  0  0
  4 17  2  0  0  0  0
  5 11  1  0  0  0  0
  5 17  1  0  0  0  0
  5 31  1  0  0  0  0
  6  7  1  0  0  0  0
  6 18  1  0  0  0  0
  6 37  1  0  0  0  0
  7 21  2  0  0  0  0
  8 10  2  0  0  0  0
  8 13  1  0  0  0  0
  8 14  1  0  0  0  0
  9 12  2  0  0  0  0
  9 15  1  0  0  0  0
  9 17  1  0  0  0  0
 10 12  1  0  0  0  0
 11 16  1  0  0  0  0
 11 26  1  0  0  0  0
 11 27  1  0  0  0  0
 12 28  1  0  0  0  0
 13 18  2  0  0  0  0
 13 21  1  0  0  0  0
 14 15  2  0  0  0  0
 14 29  1  0  0  0  0
 15 30  1  0  0  0  0
 16 19  2  0  0  0  0
 16 20  1  0  0  0  0
 18 33  1  0  0  0  0
 19 22  1  0  0  0  0
 20 23  2  0  0  0  0
 20 32  1  0  0  0  0
 21 34  1  0  0  0  0
 22 24  2  0  0  0  0
 22 35  1  0  0  0  0
 23 24  1  0  0  0  0
 23 36  1  0  0  0  0
 25 38  1  0  0  0  0
 25 39  1  0  0  0  0
 25 40  1  0  0  0  0
M  END
> <PUBCHEM_COMPOUND_CID>
90354045

> <PUBCHEM_CONFORMER_RMSD>
0.8

> <PUBCHEM_CONFORMER_DIVERSEORDER>
1
51
5
19
33
44
55
22
65
35
36
28
48
61
15
57
34
50
39
42
41
47
29
64
24
27
6
46
56
3
63
2
38
26
10
53
17
37
31
60
59
30
49
40
4
18
52
20
54
16
45
62
13
32
12
43
25
58
8
11
7
23
14
21
9

> <PUBCHEM_MMFF94_PARTIAL_CHARGES>
35
1 -0.18
10 0.08
11 0.44
12 -0.15
13 -0.05
14 -0.15
15 -0.15
16 -0.14
17 0.54
18 -0.3
19 0.18
2 -0.19
20 -0.15
21 0.14
22 -0.15
23 -0.15
24 0.19
25 0.28
28 0.15
29 0.15
3 -0.36
30 0.15
31 0.37
32 0.15
33 0.15
34 0.15
35 0.15
36 0.15
37 0.27
4 -0.57
5 -0.73
6 0.3
7 -0.71
8 0.05
9 0.09

> <PUBCHEM_EFFECTIVE_ROTOR_COUNT>
6

> <PUBCHEM_PHARMACOPHORE_FEATURES>
8
1 3 acceptor
1 4 acceptor
1 5 donor
1 6 donor
1 7 acceptor
5 6 7 13 18 21 rings
6 16 19 20 22 23 24 rings
6 8 9 10 12 14 15 rings

> <PUBCHEM_HEAVY_ATOM_COUNT>
25

> <PUBCHEM_ATOM_DEF_STEREO_COUNT>
0

> <PUBCHEM_ATOM_UDEF_STEREO_COUNT>
0

> <PUBCHEM_BOND_DEF_STEREO_COUNT>
0

> <PUBCHEM_BOND_UDEF_STEREO_COUNT>
0

> <PUBCHEM_ISOTOPIC_ATOM_COUNT>
0

> <PUBCHEM_COMPONENT_COUNT>
1

> <PUBCHEM_CACTVS_TAUTO_COUNT>
7

> <PUBCHEM_CONFORMER_ID>
0562B17D00000001

> <PUBCHEM_MMFF94_ENERGY>
69.2056

> <PUBCHEM_FEATURE_SELFOVERLAP>
40.597

> <PUBCHEM_SHAPE_FINGERPRINT>
10 15 18186521029398754376
12166972 35 18340773650516664816
12403259 415 18339925913902750604
12596602 18 16443069442910665056
12616971 3 17749389312208574150
12633257 1 18260546779520745116
12760667 363 11241965953990437134
12925494 130 17974282115111127085
13150687 139 10231465368690261618
13533116 47 17385443202683082018
13668630 136 13045942395712855120
13685833 64 13623525762631718570
13782708 43 14707787220197233905
13914758 101 15213012718660365381
14341114 176 18187083949440112468
15238133 3 18269275824251775488
15348495 7 17168153393969742169
17349148 13 16805616862361455687
21150785 3 14979952575989033761
21315764 268 18335134285094517332
21641784 216 13542194865555186731
21792934 111 18114748123527105261
21859007 373 17314214593230985701
22149856 69 18127719118087353755
2215653 11 8646765582344605449
23016692 55 7925916984577690130
23559900 14 18269575904520748822
2916195 48 18131633365900637923
3472631 163 16845287298169150584
34797466 226 15769503100817883781
3680242 22 18335146375216225120
4340502 62 17458352926965188219
465052 167 13912324581968719314
5104073 3 18044382630386146089
8509985 295 18334296491852281772
960060 61 10087920770523309702

> <PUBCHEM_SHAPE_MULTIPOLES>
482.4
16.85
2.26
1.45
2.75
0.34
-0.22
4.79
-8.03
-0.38
0.64
-1.63
0.49
0.03

> <PUBCHEM_SHAPE_SELFOVERLAP>
1043.626

> <PUBCHEM_SHAPE_VOLUME>
266.5

> <PUBCHEM_COORDINATE_TYPE>
2
5
10

$$$$
118668479
  -OEChem-05102415143D

 49 52  0     1  0  0  0  0  0999 V2000
    2.7852    1.8434    0.5821 O   0  0  0  0  0  0  0  0  0  0  0  0
   -0.4239   -2.7148   -1.3830 O   0  0  0  0  0  0  0  0  0  0  0  0
   -1.1480   -1.2876    0.2942 N   0  0  0  0  0  0  0  0  0  0  0  0
    7.1578    0.5469    0.4829 N   0  0  0  0  0  0  0  0  0  0  0  0
    6.9642    1.5719   -0.3646 N   0  0  0  0  0  0  0  0  0  0  0  0
   -2.5237   -1.7481    0.3201 C   0  0  2  0  0  0  0  0  0  0  0  0
   -3.4720   -0.6541    0.7020 C   0  0  0  0  0  0  0  0  0  0  0  0
   -3.9954    0.2419   -0.2444 C   0  0  0  0  0  0  0  0  0  0  0  0
   -4.8865    1.2556    0.1812 C   0  0  0  0  0  0  0  0  0  0  0  0
   -2.6443   -2.9868    1.2161 C   0  0  0  0  0  0  0  0  0  0  0  0
   -3.8222   -0.5521    2.0486 C   0  0  0  0  0  0  0  0  0  0  0  0
   -3.6539    0.1540   -1.6038 C   0  0  0  0  0  0  0  0  0  0  0  0
   -5.2280    1.3435    1.5406 C   0  0  0  0  0  0  0  0  0  0  0  0
   -0.2082   -1.8211   -0.5685 C   0  0  0  0  0  0  0  0  0  0  0  0
   -4.6985    0.4448    2.4671 C   0  0  0  0  0  0  0  0  0  0  0  0
    1.1624   -1.2599   -0.4528 C   0  0  0  0  0  0  0  0  0  0  0  0
   -5.4099    2.1516   -0.7652 C   0  0  0  0  0  0  0  0  0  0  0  0
    3.7371   -0.2081   -0.2325 C   0  0  0  0  0  0  0  0  0  0  0  0
   -4.1834    1.0527   -2.5303 C   0  0  0  0  0  0  0  0  0  0  0  0
    1.3466    0.0416    0.0138 C   0  0  0  0  0  0  0  0  0  0  0  0
    2.6337    0.5676    0.1241 C   0  0  0  0  0  0  0  0  0  0  0  0
   -5.0597    2.0496   -2.1118 C   0  0  0  0  0  0  0  0  0  0  0  0
    2.2657   -2.0356   -0.8095 C   0  0  0  0  0  0  0  0  0  0  0  0
    3.5529   -1.5096   -0.6995 C   0  0  0  0  0  0  0  0  0  0  0  0
    5.0728    0.3139   -0.1251 C   0  0  0  0  0  0  0  0  0  0  0  0
    6.0556   -0.2367    0.6608 C   0  0  0  0  0  0  0  0  0  0  0  0
    5.6888    1.4243   -0.7327 C   0  0  0  0  0  0  0  0  0  0  0  0
    2.9348    2.0111    1.9899 C   0  0  0  0  0  0  0  0  0  0  0  0
   -2.7814   -2.1290   -0.6743 H   0  0  0  0  0  0  0  0  0  0  0  0
   -0.8734   -0.6200    1.0074 H   0  0  0  0  0  0  0  0  0  0  0  0
   -2.2054   -2.8355    2.2087 H   0  0  0  0  0  0  0  0  0  0  0  0
   -3.6847   -3.3113    1.3292 H   0  0  0  0  0  0  0  0  0  0  0  0
   -2.0908   -3.8238    0.7726 H   0  0  0  0  0  0  0  0  0  0  0  0
   -3.4213   -1.2055    2.8156 H   0  0  0  0  0  0  0  0  0  0  0  0
   -2.9628   -0.5869   -1.9926 H   0  0  0  0  0  0  0  0  0  0  0  0
   -5.9101    2.1157    1.8904 H   0  0  0  0  0  0  0  0  0  0  0  0
   -4.9666    0.5283    3.5164 H   0  0  0  0  0  0  0  0  0  0  0  0
   -6.0964    2.9388   -0.4606 H   0  0  0  0  0  0  0  0  0  0  0  0
   -3.9082    0.9771   -3.5784 H   0  0  0  0  0  0  0  0  0  0  0  0
    0.5086    0.6846    0.2691 H   0  0  0  0  0  0  0  0  0  0  0  0
    2.1431   -3.0530   -1.1715 H   0  0  0  0  0  0  0  0  0  0  0  0
   -5.4707    2.7495   -2.8335 H   0  0  0  0  0  0  0  0  0  0  0  0
    4.3985   -2.1307   -0.9861 H   0  0  0  0  0  0  0  0  0  0  0  0
    6.0763   -1.0942    1.3192 H   0  0  0  0  0  0  0  0  0  0  0  0
    5.2652    2.1343   -1.4292 H   0  0  0  0  0  0  0  0  0  0  0  0
    8.0708    0.4409    0.9071 H   0  0  0  0  0  0  0  0  0  0  0  0
    3.0947    3.0737    2.1925 H   0  0  0  0  0  0  0  0  0  0  0  0
    3.7974    1.4514    2.3642 H   0  0  0  0  0  0  0  0  0  0  0  0
    2.0267    1.6897    2.5099 H   0  0  0  0  0  0  0  0  0  0  0  0
  1 21  1  0  0  0  0
  1 28  1  0  0  0  0
  2 14  2  0  0  0  0
  3  6  1  0  0  0  0
  3 14  1  0  0  0  0
  3 30  1  0  0  0  0
  4  5  1  0  0  0  0
  4 26  1  0  0  0  0
  4 46  1  0  0  0  0
  5 27  2  0  0  0  0
  6  7  1  0  0  0  0
  6 10  1  0  0  0  0
  6 29  1  0  0  0  0
  7  8  1  0  0  0  0
  7 11  2  0  0  0  0
  8  9  1  0  0  0  0
  8 12  2  0  0  0  0
  9 13  1  0  0  0  0
  9 17  2  0  0  0  0
 10 31  1  0  0  0  0
 10 32  1  0  0  0  0
 10 33  1  0  0  0  0
 11 15  1  0  0  0  0
 11 34  1  0  0  0  0
 12 19  1  0  0  0  0
 12 35  1  0  0  0  0
 13 15  2  0  0  0  0
 13 36  1  0  0  0  0
 14 16  1  0  0  0  0
 15 37  1  0  0  0  0
 16 20  2  0  0  0  0
 16 23  1  0  0  0  0
 17 22  1  0  0  0  0
 17 38  1  0  0  0  0
 18 21  2  0  0  0  0
 18 24  1  0  0  0  0
 18 25  1  0  0  0  0
 19 22  2  0  0  0  0
 19 39  1  0  0  0  0
 20 21  1  0  0  0  0
 20 40  1  0  0  0  0
 22 42  1  0  0  0  0
 23 24  2  0  0  0  0
 23 41  1  0  0  0  0
 24 43  1  0  0  0  0
 25 26  2  0  0  0  0
 25 27  1  0  0  0  0
 26 44  1  0  0  0  0
 27 45  1  0  0  0  0
 28 47  1  0  0  0  0
 28 48  1  0  0  0  0
 28 49  1  0  0  0  0
M  END
> <PUBCHEM_COMPOUND_CID>
118668479

> <PUBCHEM_CONFORMER_RMSD>
0.8

> <PUBCHEM_CONFORMER_DIVERSEORDER>
3
36
53
32
7
50
20
31
28
38
39
17
44
30
16
40
43
21
55
41
35
10
22
42
23
14
33
48
27
24
45
52
47
25
34
11
15
5
49
8
26
54
46
1
37
9
13
51
18
29
4
6
19
12
2

> <PUBCHEM_MMFF94_PARTIAL_CHARGES>
39
1 -0.36
11 -0.15
12 -0.15
13 -0.15
14 0.54
15 -0.15
16 0.09
17 -0.15
18 0.05
19 -0.15
2 -0.57
20 -0.15
21 0.08
22 -0.15
23 -0.15
24 -0.15
25 -0.05
26 -0.3
27 0.14
28 0.28
3 -0.73
30 0.37
34 0.15
35 0.15
36 0.15
37 0.15
38 0.15
39 0.15
4 0.3
40 0.15
41 0.15
42 0.15
43 0.15
44 0.15
45 0.15
46 0.27
5 -0.71
6 0.44
7 -0.14

> <PUBCHEM_EFFECTIVE_ROTOR_COUNT>
6

> <PUBCHEM_PHARMACOPHORE_FEATURES>
9
1 1 acceptor
1 2 acceptor
1 3 donor
1 4 donor
1 5 acceptor
5 4 5 25 26 27 rings
6 16 18 20 21 23 24 rings
6 7 8 9 11 13 15 rings
6 8 9 12 17 19 22 rings

> <PUBCHEM_HEAVY_ATOM_COUNT>
28

> <PUBCHEM_ATOM_DEF_STEREO_COUNT>
1

> <PUBCHEM_ATOM_UDEF_STEREO_COUNT>
0

> <PUBCHEM_BOND_DEF_STEREO_COUNT>
0

> <PUBCHEM_BOND_UDEF_STEREO_COUNT>
0

> <PUBCHEM_ISOTOPIC_ATOM_COUNT>
0

> <PUBCHEM_COMPONENT_COUNT>
1

> <PUBCHEM_CACTVS_TAUTO_COUNT>
9

> <PUBCHEM_CONFORMER_ID>
0712BCBF00000003

> <PUBCHEM_MMFF94_ENERGY>
91.2863

> <PUBCHEM_FEATURE_SELFOVERLAP>
45.699

> <PUBCHEM_SHAPE_FINGERPRINT>
10 15 17894638058080849476
10319926 262 16950574228936211955
105312 117 18410293605755762063
10554248 39 18130790036762270894
11089746 13 17060616711993781338
12422481 6 17894910758982863108
12596602 18 15213312953437215093
12988421 55 18335992973906490795
13103583 49 14634875223592916055
13402501 40 18335698295936658869
14856354 85 16443357510709830050
14950920 106 15575008315779818013
15064981 113 14977996394015790961
15081414 286 18341906164578133004
15183329 4 18201999932741028672
1601671 61 18272093820787077154
16067690 210 17095796629616881173
16993427 108 16011026313975647571
17780758 139 14996285833872381083
17870717 6 13182733711619983903
18927931 339 9871752403519959321
21033648 144 18341614789564843511
21033648 29 17968665904511059423
21279426 13 18342749494492350502
21315759 148 16588031207884835138
21814621 53 17240763948284145968
22393880 68 14836115538057888691
2748736 6 18201716254456566928
2838139 119 17846497028459884952
312425 54 15792010052367559456
32027 91 18194689155374901606
4169191 19 17916299627719862848
4938544 92 14635139102152036047
50009960 94 10230108472342404820
504843 32 18273213131518841183
508706 21 18259980509541760015
5104073 3 17168143373731958483
6086070 43 17988347261342911306
6328613 192 18271529818620013712
6608658 132 16773519863199640193
9849439 229 16374362942004395853

> <PUBCHEM_SHAPE_MULTIPOLES>
549.55
17.15
2.67
2
16.65
0.96
-0.25
-10.95
-1.06
-1.27
0.33
-3.38
-0.61
2.27

> <PUBCHEM_SHAPE_SELFOVERLAP>
1216.322

> <PUBCHEM_SHAPE_VOLUME>
296.1

> <PUBCHEM_COORDINATE_TYPE>
2
5
10

$$$$
90354154
  -OEChem-05102415143D

 39 41  0     0  0  0  0  0  0999 V2000
   -2.2420    1.9529   -0.2494 O   0  0  0  0  0  0  0  0  0  0  0  0
    1.8482   -2.2955    0.1470 O   0  0  0  0  0  0  0  0  0  0  0  0
    2.0961   -0.4289   -1.2062 N   0  0  0  0  0  0  0  0  0  0  0  0
   -6.3168   -0.0759    0.0509 N   0  0  0  0  0  0  0  0  0  0  0  0
   -6.1397    0.7533    1.0936 N   0  0  0  0  0  0  0  0  0  0  0  0
    4.9852   -0.8023    0.4064 N   0  0  0  0  0  0  0  0  0  0  0  0
   -2.7541   -0.3619    0.1475 C   0  0  0  0  0  0  0  0  0  0  0  0
   -0.0542   -0.9705   -0.2041 C   0  0  0  0  0  0  0  0  0  0  0  0
   -1.8416    0.6539   -0.1379 C   0  0  0  0  0  0  0  0  0  0  0  0
   -4.1505   -0.0704    0.3307 C   0  0  0  0  0  0  0  0  0  0  0  0
   -0.4917    0.3495   -0.3136 C   0  0  0  0  0  0  0  0  0  0  0  0
   -2.3166   -1.6819    0.2573 C   0  0  0  0  0  0  0  0  0  0  0  0
   -0.9668   -1.9863    0.0814 C   0  0  0  0  0  0  0  0  0  0  0  0
    1.3527   -1.2884   -0.3891 C   0  0  0  0  0  0  0  0  0  0  0  0
    3.4968   -0.6233   -1.5052 C   0  0  0  0  0  0  0  0  0  0  0  0
   -5.1566   -0.5960   -0.4429 C   0  0  0  0  0  0  0  0  0  0  0  0
    4.3847    0.0221   -0.4809 C   0  0  0  0  0  0  0  0  0  0  0  0
   -4.8144    0.7527    1.2598 C   0  0  0  0  0  0  0  0  0  0  0  0
    4.5448    1.3984   -0.4924 C   0  0  0  0  0  0  0  0  0  0  0  0
   -2.6328    2.3998   -1.5454 C   0  0  0  0  0  0  0  0  0  0  0  0
    5.3748    1.9649    0.4685 C   0  0  0  0  0  0  0  0  0  0  0  0
    5.7844   -0.2157    1.3255 C   0  0  0  0  0  0  0  0  0  0  0  0
    6.0102    1.1495    1.3984 C   0  0  0  0  0  0  0  0  0  0  0  0
    0.1955    1.1698   -0.5022 H   0  0  0  0  0  0  0  0  0  0  0  0
   -3.0102   -2.4888    0.4824 H   0  0  0  0  0  0  0  0  0  0  0  0
   -0.6470   -3.0215    0.1671 H   0  0  0  0  0  0  0  0  0  0  0  0
    3.6917   -0.2021   -2.4976 H   0  0  0  0  0  0  0  0  0  0  0  0
    3.7031   -1.6984   -1.5589 H   0  0  0  0  0  0  0  0  0  0  0  0
    1.6441    0.3522   -1.6693 H   0  0  0  0  0  0  0  0  0  0  0  0
   -5.1588   -1.2763   -1.2834 H   0  0  0  0  0  0  0  0  0  0  0  0
   -4.3916    1.3534    2.0530 H   0  0  0  0  0  0  0  0  0  0  0  0
   -7.2608   -0.2429   -0.2744 H   0  0  0  0  0  0  0  0  0  0  0  0
    4.0445    2.0257   -1.2224 H   0  0  0  0  0  0  0  0  0  0  0  0
   -1.7815    2.3649   -2.2326 H   0  0  0  0  0  0  0  0  0  0  0  0
   -3.4557    1.7955   -1.9394 H   0  0  0  0  0  0  0  0  0  0  0  0
   -2.9710    3.4363   -1.4621 H   0  0  0  0  0  0  0  0  0  0  0  0
    5.5262    3.0399    0.4928 H   0  0  0  0  0  0  0  0  0  0  0  0
    6.2561   -0.8950    2.0278 H   0  0  0  0  0  0  0  0  0  0  0  0
    6.6615    1.5692    2.1564 H   0  0  0  0  0  0  0  0  0  0  0  0
  1  9  1  0  0  0  0
  1 20  1  0  0  0  0
  2 14  2  0  0  0  0
  3 14  1  0  0  0  0
  3 15  1  0  0  0  0
  3 29  1  0  0  0  0
  4  5  1  0  0  0  0
  4 16  1  0  0  0  0
  4 32  1  0  0  0  0
  5 18  2  0  0  0  0
  6 17  1  0  0  0  0
  6 22  2  0  0  0  0
  7  9  2  0  0  0  0
  7 10  1  0  0  0  0
  7 12  1  0  0  0  0
  8 11  2  0  0  0  0
  8 13  1  0  0  0  0
  8 14  1  0  0  0  0
  9 11  1  0  0  0  0
 10 16  2  0  0  0  0
 10 18  1  0  0  0  0
 11 24  1  0  0  0  0
 12 13  2  0  0  0  0
 12 25  1  0  0  0  0
 13 26  1  0  0  0  0
 15 17  1  0  0  0  0
 15 27  1  0  0  0  0
 15 28  1  0  0  0  0
 16 30  1  0  0  0  0
 17 19  2  0  0  0  0
 18 31  1  0  0  0  0
 19 21  1  0  0  0  0
 19 33  1  0  0  0  0
 20 34  1  0  0  0  0
 20 35  1  0  0  0  0
 20 36  1  0  0  0  0
 21 23  2  0  0  0  0
 21 37  1  0  0  0  0
 22 23  1  0  0  0  0
 22 38  1  0  0  0  0
 23 39  1  0  0  0  0
M  END
> <PUBCHEM_COMPOUND_CID>
90354154

> <PUBCHEM_CONFORMER_RMSD>
0.8

> <PUBCHEM_CONFORMER_DIVERSEORDER>
1
50
40
31
29
25
41
10
34
49
35
4
43
37
47
14
38
45
16
39
8
3
30
36
51
23
42
32
26
9
48
11
15
53
21
7
28
17
52
5
44
24
22
13
2
46
27
12
20
18
6
19
33

> <PUBCHEM_MMFF94_PARTIAL_CHARGES>
34
1 -0.36
10 -0.05
11 -0.15
12 -0.15
13 -0.15
14 0.54
15 0.44
16 -0.3
17 0.17
18 0.14
19 -0.15
2 -0.57
20 0.28
21 -0.15
22 0.16
23 -0.15
24 0.15
25 0.15
26 0.15
29 0.37
3 -0.73
30 0.15
31 0.15
32 0.27
33 0.15
37 0.15
38 0.15
39 0.15
4 0.3
5 -0.71
6 -0.62
7 0.05
8 0.09
9 0.08

> <PUBCHEM_EFFECTIVE_ROTOR_COUNT>
6

> <PUBCHEM_PHARMACOPHORE_FEATURES>
9
1 1 acceptor
1 2 acceptor
1 3 donor
1 4 donor
1 5 acceptor
1 6 acceptor
5 4 5 10 16 18 rings
6 6 17 19 21 22 23 rings
6 7 8 9 11 12 13 rings

> <PUBCHEM_HEAVY_ATOM_COUNT>
23

> <PUBCHEM_ATOM_DEF_STEREO_COUNT>
0

> <PUBCHEM_ATOM_UDEF_STEREO_COUNT>
0

> <PUBCHEM_BOND_DEF_STEREO_COUNT>
0

> <PUBCHEM_BOND_UDEF_STEREO_COUNT>
0

> <PUBCHEM_ISOTOPIC_ATOM_COUNT>
0

> <PUBCHEM_COMPONENT_COUNT>
1

> <PUBCHEM_CACTVS_TAUTO_COUNT>
7

> <PUBCHEM_CONFORMER_ID>
0562B1EA00000001

> <PUBCHEM_MMFF94_ENERGY>
66.0999

> <PUBCHEM_FEATURE_SELFOVERLAP>
45.673

> <PUBCHEM_SHAPE_FINGERPRINT>
10 15 18113900494065963464
11595378 159 17531234042084597400
12236239 1 16877663469688144535
12403259 415 18410294666828754180
12616971 3 16732984275223948478
12760667 363 7781525827731180428
12925494 130 18048025277343237172
13402501 40 18342173392863830456
13533116 47 18040433248912347922
13668630 136 13984660335294713040
13914758 101 15068612761236078989
13955234 65 18270126682373770310
14528608 73 16128659660773632530
15183329 4 9871753494114604680
15348495 7 16950852521252206536
17349148 13 16732993023940201798
17980427 23 18337107998565496766
18222031 100 9223231823600824814
21150785 3 15554439696346683901
21315764 268 18335132099198919124
21792934 111 18041562430464094629
21859007 373 17242437340024244951
23016692 55 7925916997694707258
23559900 14 18339382815573508598
23569914 2 16840186469758902697
2916195 48 18202565072705583081
34797466 226 16128384812583462524
3680242 22 18408608050219660776
4325135 7 17917991697939616525
4340502 62 17530688705691960771
465052 167 13623526857985678890
5104073 3 18116156558850609561
6913067 236 18187081754426975013
960060 61 9583516530163439080
9981440 41 18040437655517021931

> <PUBCHEM_SHAPE_MULTIPOLES>
441.67
16.01
2.08
1.22
3.94
0.27
-0.03
5.36
5.65
0.27
-0.28
0.63
0.35
0.6

> <PUBCHEM_SHAPE_SELFOVERLAP>
961.737

> <PUBCHEM_SHAPE_VOLUME>
240.8

> <PUBCHEM_COORDINATE_TYPE>
2
5
10

$$$$
118662894
  -OEChem-05102415143D

 40 42  0     0  0  0  0  0  0999 V2000
   -3.6258   -2.1114   -1.3156 F   0  0  0  0  0  0  0  0  0  0  0  0
   -5.3877   -2.8010    0.6475 F   0  0  0  0  0  0  0  0  0  0  0  0
   -5.7630    1.7447    1.9215 F   0  0  0  0  0  0  0  0  0  0  0  0
    4.0707    1.9824    0.1235 O   0  0  0  0  0  0  0  0  0  0  0  0
   -0.9716    2.2028   -0.3232 O   0  0  0  0  0  0  0  0  0  0  0  0
   -1.4596    0.2251   -1.4312 N   0  0  0  0  0  0  0  0  0  0  0  0
    6.5593   -1.8403    0.0300 N   0  0  0  0  0  0  0  0  0  0  0  0
    6.6947   -1.2341    1.2218 N   0  0  0  0  0  0  0  0  0  0  0  0
    3.3314   -0.3028    0.0296 C   0  0  0  0  0  0  0  0  0  0  0  0
    0.7395    0.6054   -0.4612 C   0  0  0  0  0  0  0  0  0  0  0  0
   -2.8208    0.5611   -1.7822 C   0  0  0  0  0  0  0  0  0  0  0  0
    3.0739    1.0663   -0.0417 C   0  0  0  0  0  0  0  0  0  0  0  0
    1.7779    1.5204   -0.2871 C   0  0  0  0  0  0  0  0  0  0  0  0
   -3.7908    0.1761   -0.7028 C   0  0  0  0  0  0  0  0  0  0  0  0
    4.6596   -0.7925    0.2833 C   0  0  0  0  0  0  0  0  0  0  0  0
    2.2929   -1.2178   -0.1448 C   0  0  0  0  0  0  0  0  0  0  0  0
    0.9970   -0.7638   -0.3899 C   0  0  0  0  0  0  0  0  0  0  0  0
   -0.6119    1.0785   -0.7152 C   0  0  0  0  0  0  0  0  0  0  0  0
   -4.1457   -1.1613   -0.5260 C   0  0  0  0  0  0  0  0  0  0  0  0
   -4.3372    1.1579    0.1238 C   0  0  0  0  0  0  0  0  0  0  0  0
    5.3583   -1.6076   -0.5734 C   0  0  0  0  0  0  0  0  0  0  0  0
    5.5311   -0.5956    1.3712 C   0  0  0  0  0  0  0  0  0  0  0  0
   -5.0468   -1.5170    0.4775 C   0  0  0  0  0  0  0  0  0  0  0  0
   -5.2383    0.8021    1.1276 C   0  0  0  0  0  0  0  0  0  0  0  0
   -5.5932   -0.5354    1.3044 C   0  0  0  0  0  0  0  0  0  0  0  0
    3.7061    3.3577    0.0325 C   0  0  0  0  0  0  0  0  0  0  0  0
   -3.0656    0.0359   -2.7125 H   0  0  0  0  0  0  0  0  0  0  0  0
   -2.8796    1.6345   -1.9969 H   0  0  0  0  0  0  0  0  0  0  0  0
    1.5225    2.5718   -0.3593 H   0  0  0  0  0  0  0  0  0  0  0  0
    2.4695   -2.2892   -0.0815 H   0  0  0  0  0  0  0  0  0  0  0  0
    0.2134   -1.5095   -0.4858 H   0  0  0  0  0  0  0  0  0  0  0  0
   -1.1135   -0.6624   -1.7797 H   0  0  0  0  0  0  0  0  0  0  0  0
   -4.0693    2.2035   -0.0013 H   0  0  0  0  0  0  0  0  0  0  0  0
    5.1219   -2.0358   -1.5378 H   0  0  0  0  0  0  0  0  0  0  0  0
    5.3704   -0.0148    2.2687 H   0  0  0  0  0  0  0  0  0  0  0  0
   -6.2946   -0.8123    2.0857 H   0  0  0  0  0  0  0  0  0  0  0  0
    7.3294   -2.4003   -0.3138 H   0  0  0  0  0  0  0  0  0  0  0  0
    4.6189    3.9418    0.1908 H   0  0  0  0  0  0  0  0  0  0  0  0
    3.3382    3.6146   -0.9668 H   0  0  0  0  0  0  0  0  0  0  0  0
    3.0076    3.6458    0.8257 H   0  0  0  0  0  0  0  0  0  0  0  0
  1 19  1  0  0  0  0
  2 23  1  0  0  0  0
  3 24  1  0  0  0  0
  4 12  1  0  0  0  0
  4 26  1  0  0  0  0
  5 18  2  0  0  0  0
  6 11  1  0  0  0  0
  6 18  1  0  0  0  0
  6 32  1  0  0  0  0
  7  8  1  0  0  0  0
  7 21  1  0  0  0  0
  7 37  1  0  0  0  0
  8 22  2  0  0  0  0
  9 12  2  0  0  0  0
  9 15  1  0  0  0  0
  9 16  1  0  0  0  0
 10 13  2  0  0  0  0
 10 17  1  0  0  0  0
 10 18  1  0  0  0  0
 11 14  1  0  0  0  0
 11 27  1  0  0  0  0
 11 28  1  0  0  0  0
 12 13  1  0  0  0  0
 13 29  1  0  0  0  0
 14 19  2  0  0  0  0
 14 20  1  0  0  0  0
 15 21  2  0  0  0  0
 15 22  1  0  0  0  0
 16 17  2  0  0  0  0
 16 30  1  0  0  0  0
 17 31  1  0  0  0  0
 19 23  1  0  0  0  0
 20 24  2  0  0  0  0
 20 33  1  0  0  0  0
 21 34  1  0  0  0  0
 22 35  1  0  0  0  0
 23 25  2  0  0  0  0
 24 25  1  0  0  0  0
 25 36  1  0  0  0  0
 26 38  1  0  0  0  0
 26 39  1  0  0  0  0
 26 40  1  0  0  0  0
M  END
> <PUBCHEM_COMPOUND_CID>
118662894

> <PUBCHEM_CONFORMER_RMSD>
0.8

> <PUBCHEM_CONFORMER_DIVERSEORDER>
6
45
17
63
84
42
60
62
29
86
67
77
79
44
78
36
52
30
5
85
71
50
47
1
82
89
31
83
66
87
69
39
81
65
35
53
46
18
54
58
75
4
61
80
73
55
70
24
40
76
34
41
23
49
16
48
13
2
43
59
21
51
25
64
74
37
9
26
32
57
33
28
27
88
22
3
56
8
38
19
15
14
7
20
12
68
72
11
10

> <PUBCHEM_MMFF94_PARTIAL_CHARGES>
35
1 -0.19
10 0.09
11 0.44
12 0.08
13 -0.15
14 -0.14
15 -0.05
16 -0.15
17 -0.15
18 0.54
19 0.19
2 -0.19
20 -0.15
21 -0.3
22 0.14
23 0.19
24 0.19
25 -0.15
26 0.28
29 0.15
3 -0.19
30 0.15
31 0.15
32 0.37
33 0.15
34 0.15
35 0.15
36 0.15
37 0.27
4 -0.36
5 -0.57
6 -0.73
7 0.3
8 -0.71
9 0.05

> <PUBCHEM_EFFECTIVE_ROTOR_COUNT>
6

> <PUBCHEM_PHARMACOPHORE_FEATURES>
8
1 4 acceptor
1 5 acceptor
1 6 donor
1 7 donor
1 8 acceptor
5 7 8 15 21 22 rings
6 14 19 20 23 24 25 rings
6 9 10 12 13 16 17 rings

> <PUBCHEM_HEAVY_ATOM_COUNT>
26

> <PUBCHEM_ATOM_DEF_STEREO_COUNT>
0

> <PUBCHEM_ATOM_UDEF_STEREO_COUNT>
0

> <PUBCHEM_BOND_DEF_STEREO_COUNT>
0

> <PUBCHEM_BOND_UDEF_STEREO_COUNT>
0

> <PUBCHEM_ISOTOPIC_ATOM_COUNT>
0

> <PUBCHEM_COMPONENT_COUNT>
1

> <PUBCHEM_CACTVS_TAUTO_COUNT>
9

> <PUBCHEM_CONFORMER_ID>
0712A6EE00000006

> <PUBCHEM_MMFF94_ENERGY>
66.1804

> <PUBCHEM_FEATURE_SELFOVERLAP>
40.597

> <PUBCHEM_SHAPE_FINGERPRINT>
10693767 8 11819542694535140408
11036077 4 18412548704758302235
11089746 13 16128080179380585593
11545043 162 17822000982808149956
12107183 9 18270408178982910881
12166972 35 17022910034334433876
12422481 6 17846498106417698302
12596602 18 18341336690685213051
12616971 3 18202279221141555628
13073987 5 18341334508430720465
13103583 49 18411709768448078465
13668630 136 14418142794091655337
13782708 43 17530956965502421322
14251757 5 13190924046333682937
14849402 71 18339642364879712376
14950920 106 18412825811215066361
14955137 171 18131350766106836108
15064986 96 17631744738329653215
15238133 3 17203332203960167096
15348495 7 18412262860945186001
15461852 350 15913034427013969621
15537594 2 17967813804052714235
15880784 105 18334860554107085961
16110190 28 18342740723683360959
17349148 13 16877665642946890596
17780758 139 18343019978494295521
17844677 252 18335138682898636837
1813 80 17313105293515420013
18222031 100 16298098813360646462
18927931 339 17240762861604535655
19841028 212 18117552041297579555
20028762 73 18411696604057714486
21065198 48 18271248326236216661
21150785 3 14129352771333551418
21267235 1 18338797819990494286
21403212 168 18336835170402626113
22950370 63 18335425685529639549
2303208 19 17748824116134852508
23402539 116 15357977806921513102
23522609 53 17971223415396413780
23559900 14 18261377945422980892
2748736 6 11383826069978450602
2838139 119 10807929362402094362
312425 54 18334580161393640273
3178227 256 18334859390476981762
3663271 9 18342178915991066481
3737641 26 18191304875415855130
4093350 32 17203613727331693116
4169191 19 12894772788684530642
465052 167 18408040689783245126
5104073 3 18341611555000724144
636775 8 18264775351693718110
7226269 152 15339116831745884323
7495541 125 18113896053280542300
8863177 126 18113901597687877434
999808 66 18187929435164428178

> <PUBCHEM_SHAPE_MULTIPOLES>
486.56
17.4
2.63
1.3
1.81
0.89
0.11
-7.6
7.03
0.99
0.15
-1.39
0.01
-0.58

> <PUBCHEM_SHAPE_SELFOVERLAP>
1067.584

> <PUBCHEM_SHAPE_VOLUME>
263.9

> <PUBCHEM_COORDINATE_TYPE>
2
5
10

$$$$
118662980
  -OEChem-05102415143D

 49 52  0     1  0  0  0  0  0999 V2000
   -4.6438    1.8968    1.3407 O   0  0  0  0  0  0  0  0  0  0  0  0
   -6.2254    1.5442   -1.0434 O   0  0  0  0  0  0  0  0  0  0  0  0
    2.7464    1.8722   -0.5353 O   0  0  0  0  0  0  0  0  0  0  0  0
    0.2688   -3.4924   -0.3988 O   0  0  0  0  0  0  0  0  0  0  0  0
   -0.8496   -1.5641    0.2367 N   0  0  0  0  0  0  0  0  0  0  0  0
    7.1311    1.3543    0.6115 N   0  0  0  0  0  0  0  0  0  0  0  0
    7.0379    1.8098   -0.6495 N   0  0  0  0  0  0  0  0  0  0  0  0
   -2.1747   -2.1570    0.3012 C   0  0  2  0  0  0  0  0  0  0  0  0
   -3.2464   -1.1745   -0.0315 C   0  0  0  0  0  0  0  0  0  0  0  0
   -3.4599   -0.0693    0.7926 C   0  0  0  0  0  0  0  0  0  0  0  0
   -4.4687    0.8430    0.4823 C   0  0  0  0  0  0  0  0  0  0  0  0
   -2.3742   -2.8322    1.6662 C   0  0  0  0  0  0  0  0  0  0  0  0
   -4.0376   -1.3656   -1.1648 C   0  0  0  0  0  0  0  0  0  0  0  0
   -5.2427    0.6662   -0.6672 C   0  0  0  0  0  0  0  0  0  0  0  0
   -5.0378   -0.4466   -1.4833 C   0  0  0  0  0  0  0  0  0  0  0  0
    0.2677   -2.2979   -0.1129 C   0  0  0  0  0  0  0  0  0  0  0  0
   -5.8948    2.5564    1.1275 C   0  0  0  0  0  0  0  0  0  0  0  0
   -6.1180    2.7925   -0.3536 C   0  0  0  0  0  0  0  0  0  0  0  0
    1.5524   -1.5519   -0.1064 C   0  0  0  0  0  0  0  0  0  0  0  0
    3.9652   -0.1512   -0.0905 C   0  0  0  0  0  0  0  0  0  0  0  0
    1.5606   -0.1743   -0.3253 C   0  0  0  0  0  0  0  0  0  0  0  0
    2.7669    0.5260   -0.3173 C   0  0  0  0  0  0  0  0  0  0  0  0
    2.7506   -2.2292    0.1204 C   0  0  0  0  0  0  0  0  0  0  0  0
    3.9569   -1.5290    0.1281 C   0  0  0  0  0  0  0  0  0  0  0  0
    5.2198    0.5515   -0.0764 C   0  0  0  0  0  0  0  0  0  0  0  0
    6.0676    0.5954    1.0033 C   0  0  0  0  0  0  0  0  0  0  0  0
    5.8683    1.3163   -1.0645 C   0  0  0  0  0  0  0  0  0  0  0  0
    2.6135    2.7105    0.6102 C   0  0  0  0  0  0  0  0  0  0  0  0
   -2.1952   -2.9642   -0.4432 H   0  0  0  0  0  0  0  0  0  0  0  0
   -2.8527    0.0878    1.6806 H   0  0  0  0  0  0  0  0  0  0  0  0
   -0.7536   -0.6066    0.5580 H   0  0  0  0  0  0  0  0  0  0  0  0
   -2.2718   -2.1199    2.4925 H   0  0  0  0  0  0  0  0  0  0  0  0
   -3.3673   -3.2897    1.7355 H   0  0  0  0  0  0  0  0  0  0  0  0
   -1.6284   -3.6190    1.8246 H   0  0  0  0  0  0  0  0  0  0  0  0
   -3.8852   -2.2238   -1.8140 H   0  0  0  0  0  0  0  0  0  0  0  0
   -5.6436   -0.5984   -2.3724 H   0  0  0  0  0  0  0  0  0  0  0  0
   -5.8640    3.5099    1.6639 H   0  0  0  0  0  0  0  0  0  0  0  0
   -6.6930    1.9434    1.5640 H   0  0  0  0  0  0  0  0  0  0  0  0
   -7.0502    3.3429   -0.5145 H   0  0  0  0  0  0  0  0  0  0  0  0
   -5.2982    3.3695   -0.7990 H   0  0  0  0  0  0  0  0  0  0  0  0
    0.6503    0.3797   -0.5378 H   0  0  0  0  0  0  0  0  0  0  0  0
    2.7646   -3.3016    0.2968 H   0  0  0  0  0  0  0  0  0  0  0  0
    4.8796   -2.0775    0.3037 H   0  0  0  0  0  0  0  0  0  0  0  0
    6.0169    0.1691    1.9957 H   0  0  0  0  0  0  0  0  0  0  0  0
    5.5410    1.5365   -2.0710 H   0  0  0  0  0  0  0  0  0  0  0  0
    7.9513    1.6008    1.1514 H   0  0  0  0  0  0  0  0  0  0  0  0
    2.6640    3.7516    0.2797 H   0  0  0  0  0  0  0  0  0  0  0  0
    3.4226    2.5323    1.3251 H   0  0  0  0  0  0  0  0  0  0  0  0
    1.6452    2.5443    1.0929 H   0  0  0  0  0  0  0  0  0  0  0  0
  1 11  1  0  0  0  0
  1 17  1  0  0  0  0
  2 14  1  0  0  0  0
  2 18  1  0  0  0  0
  3 22  1  0  0  0  0
  3 28  1  0  0  0  0
  4 16  2  0  0  0  0
  5  8  1  0  0  0  0
  5 16  1  0  0  0  0
  5 31  1  0  0  0  0
  6  7  1  0  0  0  0
  6 26  1  0  0  0  0
  6 46  1  0  0  0  0
  7 27  2  0  0  0  0
  8  9  1  0  0  0  0
  8 12  1  0  0  0  0
  8 29  1  0  0  0  0
  9 10  2  0  0  0  0
  9 13  1  0  0  0  0
 10 11  1  0  0  0  0
 10 30  1  0  0  0  0
 11 14  2  0  0  0  0
 12 32  1  0  0  0  0
 12 33  1  0  0  0  0
 12 34  1  0  0  0  0
 13 15  2  0  0  0  0
 13 35  1  0  0  0  0
 14 15  1  0  0  0  0
 15 36  1  0  0  0  0
 16 19  1  0  0  0  0
 17 18  1  0  0  0  0
 17 37  1  0  0  0  0
 17 38  1  0  0  0  0
 18 39  1  0  0  0  0
 18 40  1  0  0  0  0
 19 21  2  0  0  0  0
 19 23  1  0  0  0  0
 20 22  2  0  0  0  0
 20 24  1  0  0  0  0
 20 25  1  0  0  0  0
 21 22  1  0  0  0  0
 21 41  1  0  0  0  0
 23 24  2  0  0  0  0
 23 42  1  0  0  0  0
 24 43  1  0  0  0  0
 25 26  2  0  0  0  0
 25 27  1  0  0  0  0
 26 44  1  0  0  0  0
 27 45  1  0  0  0  0
 28 47  1  0  0  0  0
 28 48  1  0  0  0  0
 28 49  1  0  0  0  0
M  END
> <PUBCHEM_COMPOUND_CID>
118662980

> <PUBCHEM_CONFORMER_RMSD>
0.8

> <PUBCHEM_CONFORMER_DIVERSEORDER>
1
13
46
41
35
37
86
76
67
63
51
15
69
42
52
60
55
53
87
33
82
81
85
70
47
61
43
38
72
50
16
4
79
71
44
74
77
29
14
65
66
78
6
83
89
64
21
57
73
22
25
7
11
3
9
39
92
31
59
26
91
84
5
23
62
28
20
75
34
68
27
12
54
36
90
80
30
32
24
10
49
18
40
88
17
2
19
58
56
8
48
45

> <PUBCHEM_MMFF94_PARTIAL_CHARGES>
37
1 -0.36
10 -0.15
11 0.08
13 -0.15
14 0.08
15 -0.15
16 0.54
17 0.28
18 0.28
19 0.09
2 -0.36
20 0.05
21 -0.15
22 0.08
23 -0.15
24 -0.15
25 -0.05
26 -0.3
27 0.14
28 0.28
3 -0.36
30 0.15
31 0.37
35 0.15
36 0.15
4 -0.57
41 0.15
42 0.15
43 0.15
44 0.15
45 0.15
46 0.27
5 -0.73
6 0.3
7 -0.71
8 0.44
9 -0.14

> <PUBCHEM_EFFECTIVE_ROTOR_COUNT>
6.8

> <PUBCHEM_PHARMACOPHORE_FEATURES>
11
1 1 acceptor
1 2 acceptor
1 3 acceptor
1 4 acceptor
1 5 donor
1 6 donor
1 7 acceptor
5 6 7 25 26 27 rings
6 1 2 11 14 17 18 rings
6 19 20 21 22 23 24 rings
6 9 10 11 13 14 15 rings

> <PUBCHEM_HEAVY_ATOM_COUNT>
28

> <PUBCHEM_ATOM_DEF_STEREO_COUNT>
0

> <PUBCHEM_ATOM_UDEF_STEREO_COUNT>
1

> <PUBCHEM_BOND_DEF_STEREO_COUNT>
0

> <PUBCHEM_BOND_UDEF_STEREO_COUNT>
0

> <PUBCHEM_ISOTOPIC_ATOM_COUNT>
0

> <PUBCHEM_COMPONENT_COUNT>
1

> <PUBCHEM_CACTVS_TAUTO_COUNT>
9

> <PUBCHEM_CONFORMER_ID>
0712A74400000001

> <PUBCHEM_MMFF94_ENERGY>
88.1018

> <PUBCHEM_FEATURE_SELFOVERLAP>
55.866

> <PUBCHEM_SHAPE_FINGERPRINT>
10595046 47 18342731906532948471
10906281 52 18040726904721809990
12107183 9 18189044318538471938
12422481 6 17167856508951028486
12895837 130 18343301479304172069
13540713 4 18265920019357612315
13690498 29 17274244193498918671
13782708 43 11095889254909654230
14394314 77 18271531892973725729
14556957 393 15051743031065485033
14790565 3 18046917245396521444
14931854 50 18059853918498761617
14950920 106 13984956129702801725
15064981 113 16987435300443758461
15064981 194 18265621056080168007
15183329 4 18408599279648671468
15238133 3 18114187475612552550
1601671 61 18336546114433850966
16112460 7 18338800005105695680
17780758 139 11963383047073144743
18608769 82 18339082705071316779
20511986 3 18270667693543514107
21033648 144 18260541213138069887
21033648 29 18271799185729989250
21033650 10 14979685330387012851
21279426 13 18341344331495790654
21298829 104 18412544292882909816
21315759 148 13623520243498529520
21421861 104 17676753294362778370
21585483 132 13038364510626239556
21774942 28 17846500279834868368
23522609 53 17314244426690956556
23569914 152 17054166766073264404
270888 7 18410012092255876307
2748736 6 18409725166797004872
2838139 119 18341609369125860766
3862424 121 13253643527040718053
397830 11 12540981849830092726
4144715 1 18188220887266194338
4169191 19 18042122214821034124
474 4 18337390419010453387
484985 159 9151185233928635067
5104073 3 17894631443773867779
54039377 194 8862946095906145560
6328613 192 18190182467976625628
636775 8 8502387667784707216
7288768 16 18113907027038385675
9981440 41 18409732880738325283

> <PUBCHEM_SHAPE_MULTIPOLES>
537.81
18.82
3.57
1.17
5.95
0.53
-0.08
-16.51
1.22
-2.03
-0.61
-1.1
-0.04
-0.56

> <PUBCHEM_SHAPE_SELFOVERLAP>
1180.044

> <PUBCHEM_SHAPE_VOLUME>
290.6

> <PUBCHEM_COORDINATE_TYPE>
2
5
10

$$$$
118663093
  -OEChem-05102415143D

 52 55  0     0  0  0  0  0  0999 V2000
    4.3988    2.0771   -0.6392 O   0  0  0  0  0  0  0  0  0  0  0  0
   -0.5184    1.1177   -1.3953 O   0  0  0  0  0  0  0  0  0  0  0  0
   -5.4815    0.5829    0.6352 N   0  0  0  0  0  0  0  0  0  0  0  0
   -0.5543   -1.1931   -1.5916 N   0  0  0  0  0  0  0  0  0  0  0  0
    7.3133   -1.0358    1.3286 N   0  0  0  0  0  0  0  0  0  0  0  0
    7.4384    0.2811    1.5659 N   0  0  0  0  0  0  0  0  0  0  0  0
   -6.6571    2.6146    0.4920 C   0  0  0  0  0  0  0  0  0  0  0  0
   -6.8843    2.0124    1.8676 C   0  0  0  0  0  0  0  0  0  0  0  0
   -5.4016    1.8971    0.0020 C   0  0  0  0  0  0  0  0  0  0  0  0
   -6.5120    0.5448    1.6699 C   0  0  0  0  0  0  0  0  0  0  0  0
   -4.6825   -0.4885    0.2986 C   0  0  0  0  0  0  0  0  0  0  0  0
   -3.7238   -0.3558   -0.7060 C   0  0  0  0  0  0  0  0  0  0  0  0
   -4.8330   -1.7061    0.9625 C   0  0  0  0  0  0  0  0  0  0  0  0
   -2.9157   -1.4406   -1.0467 C   0  0  0  0  0  0  0  0  0  0  0  0
   -4.0247   -2.7907    0.6220 C   0  0  0  0  0  0  0  0  0  0  0  0
   -1.8905   -1.2981   -2.1204 C   0  0  0  0  0  0  0  0  0  0  0  0
   -3.0662   -2.6581   -0.3827 C   0  0  0  0  0  0  0  0  0  0  0  0
    0.0280    0.0249   -1.2687 C   0  0  0  0  0  0  0  0  0  0  0  0
    1.4222   -0.0346   -0.7592 C   0  0  0  0  0  0  0  0  0  0  0  0
    4.0392   -0.1460    0.2009 C   0  0  0  0  0  0  0  0  0  0  0  0
    2.2761    1.0543   -0.9339 C   0  0  0  0  0  0  0  0  0  0  0  0
    3.5846    0.9988   -0.4539 C   0  0  0  0  0  0  0  0  0  0  0  0
    1.8767   -1.1795   -0.1045 C   0  0  0  0  0  0  0  0  0  0  0  0
    3.1854   -1.2353    0.3753 C   0  0  0  0  0  0  0  0  0  0  0  0
    5.3839   -0.2239    0.7052 C   0  0  0  0  0  0  0  0  0  0  0  0
    6.1014   -1.3901    0.8128 C   0  0  0  0  0  0  0  0  0  0  0  0
    6.2567    0.7718    1.1832 C   0  0  0  0  0  0  0  0  0  0  0  0
    3.8408    3.1988   -1.3198 C   0  0  0  0  0  0  0  0  0  0  0  0
   -6.5357    3.7011    0.5164 H   0  0  0  0  0  0  0  0  0  0  0  0
   -7.5050    2.3784   -0.1626 H   0  0  0  0  0  0  0  0  0  0  0  0
   -6.2071    2.4776    2.5943 H   0  0  0  0  0  0  0  0  0  0  0  0
   -7.9098    2.1396    2.2252 H   0  0  0  0  0  0  0  0  0  0  0  0
   -5.4144    1.8472   -1.0919 H   0  0  0  0  0  0  0  0  0  0  0  0
   -4.4996    2.4231    0.3349 H   0  0  0  0  0  0  0  0  0  0  0  0
   -6.1528    0.1292    2.6174 H   0  0  0  0  0  0  0  0  0  0  0  0
   -7.3769   -0.0309    1.3213 H   0  0  0  0  0  0  0  0  0  0  0  0
   -3.5775    0.5828   -1.2328 H   0  0  0  0  0  0  0  0  0  0  0  0
   -5.5714   -1.8562    1.7443 H   0  0  0  0  0  0  0  0  0  0  0  0
   -4.1426   -3.7395    1.1374 H   0  0  0  0  0  0  0  0  0  0  0  0
   -1.9163   -2.1731   -2.7805 H   0  0  0  0  0  0  0  0  0  0  0  0
   -2.0975   -0.4255   -2.7512 H   0  0  0  0  0  0  0  0  0  0  0  0
   -2.4425   -3.5104   -0.6393 H   0  0  0  0  0  0  0  0  0  0  0  0
   -0.0280   -2.0565   -1.5127 H   0  0  0  0  0  0  0  0  0  0  0  0
    1.8720    1.9148   -1.4556 H   0  0  0  0  0  0  0  0  0  0  0  0
    1.2347   -2.0348    0.0840 H   0  0  0  0  0  0  0  0  0  0  0  0
    3.4973   -2.1352    0.8994 H   0  0  0  0  0  0  0  0  0  0  0  0
    5.8828   -2.4214    0.5718 H   0  0  0  0  0  0  0  0  0  0  0  0
    6.0928    1.8349    1.2875 H   0  0  0  0  0  0  0  0  0  0  0  0
    8.0985   -1.6384    1.5412 H   0  0  0  0  0  0  0  0  0  0  0  0
    4.6249    3.9614   -1.3757 H   0  0  0  0  0  0  0  0  0  0  0  0
    3.0110    3.6422   -0.7589 H   0  0  0  0  0  0  0  0  0  0  0  0
    3.5680    2.9526   -2.3517 H   0  0  0  0  0  0  0  0  0  0  0  0
  1 22  1  0  0  0  0
  1 28  1  0  0  0  0
  2 18  2  0  0  0  0
  3  9  1  0  0  0  0
  3 10  1  0  0  0  0
  3 11  1  0  0  0  0
  4 16  1  0  0  0  0
  4 18  1  0  0  0  0
  4 43  1  0  0  0  0
  5  6  1  0  0  0  0
  5 26  1  0  0  0  0
  5 49  1  0  0  0  0
  6 27  2  0  0  0  0
  7  8  1  0  0  0  0
  7  9  1  0  0  0  0
  7 29  1  0  0  0  0
  7 30  1  0  0  0  0
  8 10  1  0  0  0  0
  8 31  1  0  0  0  0
  8 32  1  0  0  0  0
  9 33  1  0  0  0  0
  9 34  1  0  0  0  0
 10 35  1  0  0  0  0
 10 36  1  0  0  0  0
 11 12  1  0  0  0  0
 11 13  2  0  0  0  0
 12 14  2  0  0  0  0
 12 37  1  0  0  0  0
 13 15  1  0  0  0  0
 13 38  1  0  0  0  0
 14 16  1  0  0  0  0
 14 17  1  0  0  0  0
 15 17  2  0  0  0  0
 15 39  1  0  0  0  0
 16 40  1  0  0  0  0
 16 41  1  0  0  0  0
 17 42  1  0  0  0  0
 18 19  1  0  0  0  0
 19 21  2  0  0  0  0
 19 23  1  0  0  0  0
 20 22  2  0  0  0  0
 20 24  1  0  0  0  0
 20 25  1  0  0  0  0
 21 22  1  0  0  0  0
 21 44  1  0  0  0  0
 23 24  2  0  0  0  0
 23 45  1  0  0  0  0
 24 46  1  0  0  0  0
 25 26  2  0  0  0  0
 25 27  1  0  0  0  0
 26 47  1  0  0  0  0
 27 48  1  0  0  0  0
 28 50  1  0  0  0  0
 28 51  1  0  0  0  0
 28 52  1  0  0  0  0
M  END
> <PUBCHEM_COMPOUND_CID>
118663093

> <PUBCHEM_CONFORMER_RMSD>
1

> <PUBCHEM_CONFORMER_DIVERSEORDER>
10
40
9
42
13
35
30
28
18
1
36
19
6
37
39
11
44
43
41
16
38
5
8
31
24
23
47
12
46
34
14
22
45
21
33
26
29
2
17
15
20
7
48
32
27
25
3
4

> <PUBCHEM_MMFF94_PARTIAL_CHARGES>
37
1 -0.36
10 0.37
11 0.1
12 -0.15
13 -0.15
14 -0.14
15 -0.15
16 0.44
17 -0.15
18 0.54
19 0.09
2 -0.57
20 0.05
21 -0.15
22 0.08
23 -0.15
24 -0.15
25 -0.05
26 -0.3
27 0.14
28 0.28
3 -0.84
37 0.15
38 0.15
39 0.15
4 -0.73
42 0.15
43 0.37
44 0.15
45 0.15
46 0.15
47 0.15
48 0.15
49 0.27
5 0.3
6 -0.71
9 0.37

> <PUBCHEM_EFFECTIVE_ROTOR_COUNT>
8

> <PUBCHEM_PHARMACOPHORE_FEATURES>
10
1 1 acceptor
1 2 acceptor
1 3 cation
1 4 donor
1 5 donor
1 6 acceptor
5 3 7 8 9 10 rings
5 5 6 25 26 27 rings
6 11 12 13 14 15 17 rings
6 19 20 21 22 23 24 rings

> <PUBCHEM_HEAVY_ATOM_COUNT>
28

> <PUBCHEM_ATOM_DEF_STEREO_COUNT>
0

> <PUBCHEM_ATOM_UDEF_STEREO_COUNT>
0

> <PUBCHEM_BOND_DEF_STEREO_COUNT>
0

> <PUBCHEM_BOND_UDEF_STEREO_COUNT>
0

> <PUBCHEM_ISOTOPIC_ATOM_COUNT>
0

> <PUBCHEM_COMPONENT_COUNT>
1

> <PUBCHEM_CACTVS_TAUTO_COUNT>
9

> <PUBCHEM_CONFORMER_ID>
0712A7B50000000A

> <PUBCHEM_MMFF94_ENERGY>
87.5318

> <PUBCHEM_FEATURE_SELFOVERLAP>
50.747

> <PUBCHEM_SHAPE_FINGERPRINT>
10319926 262 18337968839167127823
105312 117 16774080683155016847
10554248 39 14189582936140375188
117089 54 9221783793385756641
12107183 9 18335421244596498867
12124843 1 11023545723904868745
12403259 118 18272654597107323439
12422481 6 18409730659791002308
12616971 3 18334010627139127614
13103583 49 18186521029398903847
13668630 136 12829488130037622706
13673619 4 14345800444028087655
13690498 29 11025803124255239019
13782708 43 15791995789192418024
13941219 33 17968090885188203579
14251764 30 13912613762153324785
14347332 77 8718552675548521533
14849402 71 18042125530768154884
14931854 50 9583515387570776185
14950920 106 18115024229124653075
15142383 8 17847057766979921914
15238133 3 18131353037785787564
15352257 5 14851606557255012000
15513586 35 17769943699233666153
16110190 28 18335143102846953325
16993427 108 17831868220207674035
16994733 274 16414649138709185737
17780758 139 18333726940402309387
18643901 69 11025800886671762083
21033648 29 17561095700200860255
21130935 74 18410004469032675266
21150785 3 8646766712227030922
21196832 93 9150870794482003941
21307412 95 7997388479838686897
21403212 168 18113617838637663703
21585481 104 12822752479573593361
21792964 463 17751382739870885316
22288116 15 9439400259033164193
2303208 19 16081359774374364406
23522609 53 17823158837535361020
23559900 14 17985292719241151103
249057 25 18270110348427482349
2748736 6 17703794683009266321
2838139 119 17704065188681427809
312425 54 18259983773216219698
3178227 256 17748825207742146722
3663271 9 18262520419660976424
393628 179 17346304952674711697
393628 194 16917353619649638849
445580 182 18411133641171119467
4938544 92 18131346444958578743
5104073 3 18261953067360860320
5470011 282 9079106765610670659
58083652 198 17677041451443509749
999808 66 15213020431867981315

> <PUBCHEM_SHAPE_MULTIPOLES>
544.56
21.36
2.89
1.69
5.08
0.74
-0.1
7.42
14.44
-3.1
-0.24
-0.22
0.14
-2.64

> <PUBCHEM_SHAPE_SELFOVERLAP>
1186.933

> <PUBCHEM_SHAPE_VOLUME>
299

> <PUBCHEM_COORDINATE_TYPE>
2
5
10

$$$$
118662972
  -OEChem-05102415143D

 42 44  0     1  0  0  0  0  0999 V2000
    0.7508   -2.9436    0.4026 O   0  0  0  0  0  0  0  0  0  0  0  0
    4.8532    2.8952   -1.2108 O   0  0  0  0  0  0  0  0  0  0  0  0
    1.7338   -0.9384   -0.2242 N   0  0  0  0  0  0  0  0  0  0  0  0
    4.0340    0.7946   -0.7066 N   0  0  0  0  0  0  0  0  0  0  0  0
   -6.1035    2.1034   -0.4612 N   0  0  0  0  0  0  0  0  0  0  0  0
   -6.6173    1.3839    0.5510 N   0  0  0  0  0  0  0  0  0  0  0  0
    3.0881   -1.4235   -0.2832 C   0  0  2  0  0  0  0  0  0  0  0  0
    4.0080   -0.3145    0.1147 C   0  0  0  0  0  0  0  0  0  0  0  0
   -0.6760   -1.1063    0.1085 C   0  0  0  0  0  0  0  0  0  0  0  0
   -3.1880    0.1075    0.0886 C   0  0  0  0  0  0  0  0  0  0  0  0
   -3.0749   -1.2651   -0.1330 C   0  0  0  0  0  0  0  0  0  0  0  0
    3.4189   -1.9508   -1.6700 C   0  0  0  0  0  0  0  0  0  0  0  0
    0.6618   -1.7519    0.1192 C   0  0  0  0  0  0  0  0  0  0  0  0
   -1.8189   -1.8719   -0.1231 C   0  0  0  0  0  0  0  0  0  0  0  0
   -0.7893    0.2663    0.3301 C   0  0  0  0  0  0  0  0  0  0  0  0
   -2.0452    0.8731    0.3200 C   0  0  0  0  0  0  0  0  0  0  0  0
   -4.4712    0.7577    0.0826 C   0  0  0  0  0  0  0  0  0  0  0  0
    4.7872   -0.3509    1.2073 C   0  0  0  0  0  0  0  0  0  0  0  0
   -4.2769   -2.1181   -0.3854 C   0  0  0  0  0  0  0  0  0  0  0  0
    4.8286    1.9076   -0.4809 C   0  0  0  0  0  0  0  0  0  0  0  0
    5.6460    0.7646    1.5188 C   0  0  0  0  0  0  0  0  0  0  0  0
   -4.8207    1.7672   -0.7806 C   0  0  0  0  0  0  0  0  0  0  0  0
    5.6872    1.8503    0.7365 C   0  0  0  0  0  0  0  0  0  0  0  0
   -5.6157    0.5636    0.8790 C   0  0  0  0  0  0  0  0  0  0  0  0
    3.1824   -2.2581    0.4232 H   0  0  0  0  0  0  0  0  0  0  0  0
    1.5672    0.0120   -0.5393 H   0  0  0  0  0  0  0  0  0  0  0  0
    3.2382   -1.2090   -2.4561 H   0  0  0  0  0  0  0  0  0  0  0  0
    2.7922   -2.8182   -1.9081 H   0  0  0  0  0  0  0  0  0  0  0  0
    4.4648   -2.2704   -1.7353 H   0  0  0  0  0  0  0  0  0  0  0  0
   -1.7325   -2.9416   -0.2991 H   0  0  0  0  0  0  0  0  0  0  0  0
    0.0712    0.8927    0.5460 H   0  0  0  0  0  0  0  0  0  0  0  0
   -2.1113    1.9428    0.5061 H   0  0  0  0  0  0  0  0  0  0  0  0
    3.4284    0.8002   -1.5219 H   0  0  0  0  0  0  0  0  0  0  0  0
    4.7962   -1.2024    1.8785 H   0  0  0  0  0  0  0  0  0  0  0  0
   -4.9214   -1.6809   -1.1552 H   0  0  0  0  0  0  0  0  0  0  0  0
   -3.9932   -3.1117   -0.7510 H   0  0  0  0  0  0  0  0  0  0  0  0
   -4.8474   -2.2621    0.5374 H   0  0  0  0  0  0  0  0  0  0  0  0
    6.2610    0.6996    2.4095 H   0  0  0  0  0  0  0  0  0  0  0  0
   -4.2906    2.2691   -1.5783 H   0  0  0  0  0  0  0  0  0  0  0  0
    6.3274    2.6953    0.9586 H   0  0  0  0  0  0  0  0  0  0  0  0
   -5.7658   -0.1366    1.6888 H   0  0  0  0  0  0  0  0  0  0  0  0
   -6.6860    2.8109   -0.8912 H   0  0  0  0  0  0  0  0  0  0  0  0
  1 13  2  0  0  0  0
  2 20  2  0  0  0  0
  3  7  1  0  0  0  0
  3 13  1  0  0  0  0
  3 26  1  0  0  0  0
  4  8  1  0  0  0  0
  4 20  1  0  0  0  0
  4 33  1  0  0  0  0
  5  6  1  0  0  0  0
  5 22  1  0  0  0  0
  5 42  1  0  0  0  0
  6 24  2  0  0  0  0
  7  8  1  0  0  0  0
  7 12  1  0  0  0  0
  7 25  1  0  0  0  0
  8 18  2  0  0  0  0
  9 13  1  0  0  0  0
  9 14  2  0  0  0  0
  9 15  1  0  0  0  0
 10 11  2  0  0  0  0
 10 16  1  0  0  0  0
 10 17  1  0  0  0  0
 11 14  1  0  0  0  0
 11 19  1  0  0  0  0
 12 27  1  0  0  0  0
 12 28  1  0  0  0  0
 12 29  1  0  0  0  0
 14 30  1  0  0  0  0
 15 16  2  0  0  0  0
 15 31  1  0  0  0  0
 16 32  1  0  0  0  0
 17 22  2  0  0  0  0
 17 24  1  0  0  0  0
 18 21  1  0  0  0  0
 18 34  1  0  0  0  0
 19 35  1  0  0  0  0
 19 36  1  0  0  0  0
 19 37  1  0  0  0  0
 20 23  1  0  0  0  0
 21 23  2  0  0  0  0
 21 38  1  0  0  0  0
 22 39  1  0  0  0  0
 23 40  1  0  0  0  0
 24 41  1  0  0  0  0
M  END
> <PUBCHEM_COMPOUND_CID>
118662972

> <PUBCHEM_CONFORMER_RMSD>
0.8

> <PUBCHEM_CONFORMER_DIVERSEORDER>
2
33
57
34
18
9
52
48
47
39
38
42
26
19
46
10
17
53
50
14
7
49
27
30
56
20
11
37
31
54
45
55
8
32
6
44
51
36
23
35
3
25
22
16
12
21
24
28
43
58
15
29
41
13
4
5
40
1

> <PUBCHEM_MMFF94_PARTIAL_CHARGES>
34
1 -0.57
10 0.05
11 -0.14
13 0.54
14 -0.15
15 -0.15
16 -0.15
17 -0.05
18 -0.15
19 0.14
2 -0.57
20 0.62
21 -0.15
22 -0.3
23 -0.14
24 0.14
26 0.37
3 -0.73
30 0.15
31 0.15
32 0.15
33 0.37
34 0.15
38 0.15
39 0.15
4 -0.54
40 0.15
41 0.15
42 0.27
5 0.3
6 -0.71
7 0.44
8 -0.03
9 0.09

> <PUBCHEM_EFFECTIVE_ROTOR_COUNT>
5

> <PUBCHEM_PHARMACOPHORE_FEATURES>
9
1 1 acceptor
1 2 acceptor
1 3 donor
1 4 donor
1 5 donor
1 6 acceptor
5 5 6 17 22 24 rings
6 4 8 18 20 21 23 rings
6 9 10 11 14 15 16 rings

> <PUBCHEM_HEAVY_ATOM_COUNT>
24

> <PUBCHEM_ATOM_DEF_STEREO_COUNT>
0

> <PUBCHEM_ATOM_UDEF_STEREO_COUNT>
1

> <PUBCHEM_BOND_DEF_STEREO_COUNT>
0

> <PUBCHEM_BOND_UDEF_STEREO_COUNT>
0

> <PUBCHEM_ISOTOPIC_ATOM_COUNT>
0

> <PUBCHEM_COMPONENT_COUNT>
1

> <PUBCHEM_CACTVS_TAUTO_COUNT>
830

> <PUBCHEM_CONFORMER_ID>
0712A73C00000002

> <PUBCHEM_MMFF94_ENERGY>
55.7343

> <PUBCHEM_FEATURE_SELFOVERLAP>
45.674

> <PUBCHEM_SHAPE_FINGERPRINT>
10 15 18114187445194353689
10014705 185 18411699881301591563
10498660 4 18130794499001058920
12107183 9 18189602883641195618
12422481 6 17240480273883227357
12616971 3 18113612391701345066
12633257 1 14923953361563707354
13785724 45 17975403621857517026
13955234 65 18191588536462595155
14123256 34 11097847463707398568
14211702 104 7924754788288098353
14461889 52 18333737935666527899
14790565 3 18410013256002148497
15196674 1 18411701001882003838
15348495 7 17603872220968772768
1577012 14 18335415807816742168
15840311 113 18197509428896705229
17810953 82 18408041819185655004
17980427 23 18261392295082517831
18222031 100 12031782556845007627
20691028 202 18128259978860915641
20715895 44 18336260159110262584
21150785 3 16845279554416923653
21304303 94 13254797937014064892
21859007 373 17752473270668043852
22849339 104 15123213482032048109
23227448 37 18410293623019773951
23559900 14 18130508522714733262
245318 6 17461175515031909660
268830 7 17968364745525209678
2748736 6 18411692171640480209
2838139 119 18272640238636214916
2916195 48 18335138666256168435
3004659 81 18272371919687806834
345986 75 12324238369267215894
3472631 163 18411419513935820238
34797466 226 15410888587241381929
34934 24 18341044134556176363
351380 3 8286200561042270384
3680242 22 18334011662316059720
4340502 62 17313391080554821843
465052 167 11025796479597570600
5104073 3 18333450924144715275
543368 44 18060418006787055449
57724786 102 17749674099380478348
59682541 52 16630257926654671652
633830 44 18410009931640167062
67856867 119 18338228272234687554
7970288 3 9799693688132161332
960060 61 14908180833035410390
9981440 41 18334294300870978307

> <PUBCHEM_SHAPE_MULTIPOLES>
462.25
16.74
2.85
1.09
3.04
0.19
-0.07
-12.25
1.47
-0.64
-0.69
-1.29
-0.13
0.15

> <PUBCHEM_SHAPE_SELFOVERLAP>
1005.213

> <PUBCHEM_SHAPE_VOLUME>
252.5

> <PUBCHEM_COORDINATE_TYPE>
2
5
10

$$$$
118662961
  -OEChem-05102415143D

 44 46  0     0  0  0  0  0  0999 V2000
    2.5142   -1.1467    1.7135 O   0  0  0  0  0  0  0  0  0  0  0  0
   -0.7675    3.3948   -0.1680 O   0  0  0  0  0  0  0  0  0  0  0  0
   -6.3895   -2.4008    0.5450 O   0  0  0  0  0  0  0  0  0  0  0  0
   -1.6773    1.5102    0.8307 N   0  0  0  0  0  0  0  0  0  0  0  0
    6.4414   -0.8182   -0.8413 N   0  0  0  0  0  0  0  0  0  0  0  0
    6.0249   -1.9995   -0.3543 N   0  0  0  0  0  0  0  0  0  0  0  0
   -3.9234    1.7749   -0.1686 C   0  0  0  0  0  0  0  0  0  0  0  0
   -3.0060    2.0463    1.0212 C   0  0  0  0  0  0  0  0  0  0  0  0
   -4.1265    0.3029   -0.4313 C   0  0  0  0  0  0  0  0  0  0  0  0
    0.6428    1.5405    0.0975 C   0  0  0  0  0  0  0  0  0  0  0  0
    3.0843    0.2193   -0.1803 C   0  0  0  0  0  0  0  0  0  0  0  0
    2.2050   -0.1472    0.8388 C   0  0  0  0  0  0  0  0  0  0  0  0
   -0.6305    2.2281    0.2409 C   0  0  0  0  0  0  0  0  0  0  0  0
    0.9843    0.5135    0.9776 C   0  0  0  0  0  0  0  0  0  0  0  0
    1.5222    1.9069   -0.9215 C   0  0  0  0  0  0  0  0  0  0  0  0
    2.7429    1.2465   -1.0602 C   0  0  0  0  0  0  0  0  0  0  0  0
    4.3470   -0.4497   -0.3425 C   0  0  0  0  0  0  0  0  0  0  0  0
   -5.1771   -0.3769    0.1849 C   0  0  0  0  0  0  0  0  0  0  0  0
   -3.2633   -0.3782   -1.2898 C   0  0  0  0  0  0  0  0  0  0  0  0
   -5.3648   -1.7378   -0.0573 C   0  0  0  0  0  0  0  0  0  0  0  0
   -3.4506   -1.7392   -1.5317 C   0  0  0  0  0  0  0  0  0  0  0  0
    5.4744    0.1437   -0.8557 C   0  0  0  0  0  0  0  0  0  0  0  0
    4.7448   -1.7683   -0.0514 C   0  0  0  0  0  0  0  0  0  0  0  0
   -4.5015   -2.4188   -0.9158 C   0  0  0  0  0  0  0  0  0  0  0  0
    1.5496   -1.4464    2.7197 C   0  0  0  0  0  0  0  0  0  0  0  0
   -4.8966    2.2504    0.0069 H   0  0  0  0  0  0  0  0  0  0  0  0
   -3.5183    2.2495   -1.0719 H   0  0  0  0  0  0  0  0  0  0  0  0
   -2.9324    3.1261    1.1895 H   0  0  0  0  0  0  0  0  0  0  0  0
   -3.4071    1.5896    1.9327 H   0  0  0  0  0  0  0  0  0  0  0  0
   -1.5492    0.5369    1.0853 H   0  0  0  0  0  0  0  0  0  0  0  0
    0.2996    0.2849    1.7840 H   0  0  0  0  0  0  0  0  0  0  0  0
    1.2712    2.6989   -1.6223 H   0  0  0  0  0  0  0  0  0  0  0  0
    3.3949    1.5492   -1.8758 H   0  0  0  0  0  0  0  0  0  0  0  0
   -5.8518    0.1481    0.8567 H   0  0  0  0  0  0  0  0  0  0  0  0
   -2.4418    0.1392   -1.7782 H   0  0  0  0  0  0  0  0  0  0  0  0
   -2.7785   -2.2693   -2.2001 H   0  0  0  0  0  0  0  0  0  0  0  0
    5.6902    1.1396   -1.2177 H   0  0  0  0  0  0  0  0  0  0  0  0
    4.1659   -2.5850    0.3559 H   0  0  0  0  0  0  0  0  0  0  0  0
   -4.6367   -3.4790   -1.1127 H   0  0  0  0  0  0  0  0  0  0  0  0
    7.4035   -0.7370   -1.1458 H   0  0  0  0  0  0  0  0  0  0  0  0
    0.6087   -1.8049    2.2881 H   0  0  0  0  0  0  0  0  0  0  0  0
    1.4065   -0.6059    3.4076 H   0  0  0  0  0  0  0  0  0  0  0  0
    1.9551   -2.2718    3.3146 H   0  0  0  0  0  0  0  0  0  0  0  0
   -6.3696   -3.3322    0.2652 H   0  0  0  0  0  0  0  0  0  0  0  0
  1 12  1  0  0  0  0
  1 25  1  0  0  0  0
  2 13  2  0  0  0  0
  3 20  1  0  0  0  0
  3 44  1  0  0  0  0
  4  8  1  0  0  0  0
  4 13  1  0  0  0  0
  4 30  1  0  0  0  0
  5  6  1  0  0  0  0
  5 22  1  0  0  0  0
  5 40  1  0  0  0  0
  6 23  2  0  0  0  0
  7  8  1  0  0  0  0
  7  9  1  0  0  0  0
  7 26  1  0  0  0  0
  7 27  1  0  0  0  0
  8 28  1  0  0  0  0
  8 29  1  0  0  0  0
  9 18  2  0  0  0  0
  9 19  1  0  0  0  0
 10 13  1  0  0  0  0
 10 14  2  0  0  0  0
 10 15  1  0  0  0  0
 11 12  2  0  0  0  0
 11 16  1  0  0  0  0
 11 17  1  0  0  0  0
 12 14  1  0  0  0  0
 14 31  1  0  0  0  0
 15 16  2  0  0  0  0
 15 32  1  0  0  0  0
 16 33  1  0  0  0  0
 17 22  2  0  0  0  0
 17 23  1  0  0  0  0
 18 20  1  0  0  0  0
 18 34  1  0  0  0  0
 19 21  2  0  0  0  0
 19 35  1  0  0  0  0
 20 24  2  0  0  0  0
 21 24  1  0  0  0  0
 21 36  1  0  0  0  0
 22 37  1  0  0  0  0
 23 38  1  0  0  0  0
 24 39  1  0  0  0  0
 25 41  1  0  0  0  0
 25 42  1  0  0  0  0
 25 43  1  0  0  0  0
M  END
> <PUBCHEM_COMPOUND_CID>
118662961

> <PUBCHEM_CONFORMER_RMSD>
0.8

> <PUBCHEM_CONFORMER_DIVERSEORDER>
9
46
71
97
3
36
45
75
32
24
91
100
29
106
105
7
35
84
28
68
56
14
60
13
99
50
63
65
86
59
85
47
55
16
23
4
57
101
26
104
69
17
72
10
31
62
103
66
64
11
78
8
43
21
76
73
96
88
15
41
25
27
102
42
5
18
22
82
39
90
92
37
89
49
30
20
38
74
2
12
19
54
40
79
61
52
93
98
33
70
80
77
53
1
6
95
58
34
81
51
48
44
94
87
67
83

> <PUBCHEM_MMFF94_PARTIAL_CHARGES>
37
1 -0.36
10 0.09
11 0.05
12 0.08
13 0.54
14 -0.15
15 -0.15
16 -0.15
17 -0.05
18 -0.15
19 -0.15
2 -0.57
20 0.08
21 -0.15
22 -0.3
23 0.14
24 -0.15
25 0.28
3 -0.53
30 0.37
31 0.15
32 0.15
33 0.15
34 0.15
35 0.15
36 0.15
37 0.15
38 0.15
39 0.15
4 -0.73
40 0.27
44 0.45
5 0.3
6 -0.71
7 0.14
8 0.3
9 -0.14

> <PUBCHEM_EFFECTIVE_ROTOR_COUNT>
7

> <PUBCHEM_PHARMACOPHORE_FEATURES>
9
1 1 acceptor
1 2 acceptor
1 3 donor
1 4 donor
1 5 donor
1 6 acceptor
5 5 6 17 22 23 rings
6 10 11 12 14 15 16 rings
6 9 18 19 20 21 24 rings

> <PUBCHEM_HEAVY_ATOM_COUNT>
25

> <PUBCHEM_ATOM_DEF_STEREO_COUNT>
0

> <PUBCHEM_ATOM_UDEF_STEREO_COUNT>
0

> <PUBCHEM_BOND_DEF_STEREO_COUNT>
0

> <PUBCHEM_BOND_UDEF_STEREO_COUNT>
0

> <PUBCHEM_ISOTOPIC_ATOM_COUNT>
0

> <PUBCHEM_COMPONENT_COUNT>
1

> <PUBCHEM_CACTVS_TAUTO_COUNT>
81

> <PUBCHEM_CONFORMER_ID>
0712A73100000009

> <PUBCHEM_MMFF94_ENERGY>
68.7705

> <PUBCHEM_FEATURE_SELFOVERLAP>
45.672

> <PUBCHEM_SHAPE_FINGERPRINT>
10042902 136 18201993378177843231
10554248 39 16733560312976812582
10622 236 17897428507071247754
10928967 22 18338219562209835715
11135609 12 18201449055782265127
11315621 136 18261395589026884534
11545043 162 17561076982290272497
117089 54 18123758814184972751
11796584 16 18058170527335702524
12236239 1 18408327657385025252
12553582 1 18339908403516321623
12592606 108 18341612668663538231
12633257 1 14907895020062388847
12760667 363 18201435913757261575
12788726 201 18191863431749549985
12969540 114 16588313786995233140
13009979 54 18343872125470339569
13257819 101 13551482457950121098
13690498 29 18259982678658584933
13911987 19 16371311951623322588
14251751 18 18060700585095477254
14251764 30 18266181824032479467
14279260 333 18334289830474868842
14576447 43 18187080650557290608
14767858 380 18041290932595978460
14931854 50 17967523597914022755
14950920 106 15338827725086944687
15209294 21 9367341531292915280
15537594 2 18260552178173355961
16110190 28 17845653767223180165
17780758 139 17632864105500813905
20028762 73 18336547127957098706
20291156 8 18340480171148676741
20775438 99 17334189717463633415
20775530 9 18335968857654352951
21054139 6 18113618967623303602
221357 26 18260827150543407619
22393880 68 18187074040518440389
22950370 63 18412826906083606197
235170 7 15936677229951552691
23559900 14 18059844078407121961
2838139 119 12685091522751280038
3004659 81 18334007315983267989
351380 3 18410574002764051399
397830 11 17774706620522437648
439807 62 18335425703316169991
44062 13 18336256882677898685
46194498 28 17168704288034522573
5104073 3 17847063285195700912
54039377 194 18411149051308341807
559249 180 18340770343455254437
56633871 153 18059295495804978143
6328613 192 10303516343756746890
7495541 125 17560794408477323224
7970288 3 18270397312642169223
999808 66 18188221982893811123

> <PUBCHEM_SHAPE_MULTIPOLES>
481.94
14.89
3.01
1.52
1.69
0.71
0.79
-11.61
-3.5
-2.46
-0.04
0.47
-0.6
-1.14

> <PUBCHEM_SHAPE_SELFOVERLAP>
1046.138

> <PUBCHEM_SHAPE_VOLUME>
263.8

> <PUBCHEM_COORDINATE_TYPE>
2
5
10

$$$$
90353911
  -OEChem-05102415143D

 44 46  0     0  0  0  0  0  0999 V2000
   -5.7668    3.0231    0.5238 F   0  0  0  0  0  0  0  0  0  0  0  0
   -4.7828    2.2418   -1.2642 F   0  0  0  0  0  0  0  0  0  0  0  0
   -3.7966    2.0958    0.7083 F   0  0  0  0  0  0  0  0  0  0  0  0
    3.4982    2.1592   -0.0470 O   0  0  0  0  0  0  0  0  0  0  0  0
   -5.6214    0.7833    0.2855 O   0  0  0  0  0  0  0  0  0  0  0  0
   -0.7578    0.1205   -1.9157 O   0  0  0  0  0  0  0  0  0  0  0  0
   -0.7898   -1.9616   -0.8956 N   0  0  0  0  0  0  0  0  0  0  0  0
    7.4059   -0.1561    0.3821 N   0  0  0  0  0  0  0  0  0  0  0  0
    7.1193    0.4768    1.5325 N   0  0  0  0  0  0  0  0  0  0  0  0
    3.8559   -0.2177   -0.0386 C   0  0  0  0  0  0  0  0  0  0  0  0
    1.2068   -0.5716   -0.8388 C   0  0  0  0  0  0  0  0  0  0  0  0
   -2.1477   -2.3031   -1.2539 C   0  0  0  0  0  0  0  0  0  0  0  0
    3.0330    0.8912   -0.2365 C   0  0  0  0  0  0  0  0  0  0  0  0
   -3.1333   -1.8516   -0.2152 C   0  0  0  0  0  0  0  0  0  0  0  0
    1.7085    0.7142   -0.6366 C   0  0  0  0  0  0  0  0  0  0  0  0
    5.2239   -0.0580    0.3755 C   0  0  0  0  0  0  0  0  0  0  0  0
    3.3542   -1.5035   -0.2411 C   0  0  0  0  0  0  0  0  0  0  0  0
    2.0297   -1.6805   -0.6410 C   0  0  0  0  0  0  0  0  0  0  0  0
   -0.1745   -0.7565   -1.2541 C   0  0  0  0  0  0  0  0  0  0  0  0
   -3.9298   -0.7308   -0.4502 C   0  0  0  0  0  0  0  0  0  0  0  0
   -3.2521   -2.5525    0.9851 C   0  0  0  0  0  0  0  0  0  0  0  0
   -4.8452   -0.3109    0.5149 C   0  0  0  0  0  0  0  0  0  0  0  0
    6.3055   -0.4979   -0.3478 C   0  0  0  0  0  0  0  0  0  0  0  0
    5.7849    0.5339    1.5230 C   0  0  0  0  0  0  0  0  0  0  0  0
   -4.1672   -2.1323    1.9504 C   0  0  0  0  0  0  0  0  0  0  0  0
   -4.9640   -1.0117    1.7152 C   0  0  0  0  0  0  0  0  0  0  0  0
    2.5796    3.2254   -0.2750 C   0  0  0  0  0  0  0  0  0  0  0  0
   -4.9763    2.0309    0.0551 C   0  0  0  0  0  0  0  0  0  0  0  0
   -2.1969   -3.3920   -1.3685 H   0  0  0  0  0  0  0  0  0  0  0  0
   -2.3820   -1.8675   -2.2320 H   0  0  0  0  0  0  0  0  0  0  0  0
    1.0226    1.5386   -0.7982 H   0  0  0  0  0  0  0  0  0  0  0  0
    3.9789   -2.3817   -0.0944 H   0  0  0  0  0  0  0  0  0  0  0  0
    1.6883   -2.6966   -0.8153 H   0  0  0  0  0  0  0  0  0  0  0  0
   -0.3020   -2.6229   -0.3006 H   0  0  0  0  0  0  0  0  0  0  0  0
   -3.8412   -0.1878   -1.3877 H   0  0  0  0  0  0  0  0  0  0  0  0
   -2.6367   -3.4269    1.1794 H   0  0  0  0  0  0  0  0  0  0  0  0
    6.3971   -1.0109   -1.2953 H   0  0  0  0  0  0  0  0  0  0  0  0
    5.2806    1.0048    2.3551 H   0  0  0  0  0  0  0  0  0  0  0  0
   -4.2595   -2.6777    2.8850 H   0  0  0  0  0  0  0  0  0  0  0  0
   -5.6748   -0.6890    2.4710 H   0  0  0  0  0  0  0  0  0  0  0  0
    8.3783   -0.3231    0.1557 H   0  0  0  0  0  0  0  0  0  0  0  0
    1.7394    3.1940    0.4272 H   0  0  0  0  0  0  0  0  0  0  0  0
    2.2539    3.2641   -1.3202 H   0  0  0  0  0  0  0  0  0  0  0  0
    3.1178    4.1589   -0.0790 H   0  0  0  0  0  0  0  0  0  0  0  0
  1 28  1  0  0  0  0
  2 28  1  0  0  0  0
  3 28  1  0  0  0  0
  4 13  1  0  0  0  0
  4 27  1  0  0  0  0
  5 22  1  0  0  0  0
  5 28  1  0  0  0  0
  6 19  2  0  0  0  0
  7 12  1  0  0  0  0
  7 19  1  0  0  0  0
  7 34  1  0  0  0  0
  8  9  1  0  0  0  0
  8 23  1  0  0  0  0
  8 41  1  0  0  0  0
  9 24  2  0  0  0  0
 10 13  2  0  0  0  0
 10 16  1  0  0  0  0
 10 17  1  0  0  0  0
 11 15  2  0  0  0  0
 11 18  1  0  0  0  0
 11 19  1  0  0  0  0
 12 14  1  0  0  0  0
 12 29  1  0  0  0  0
 12 30  1  0  0  0  0
 13 15  1  0  0  0  0
 14 20  2  0  0  0  0
 14 21  1  0  0  0  0
 15 31  1  0  0  0  0
 16 23  2  0  0  0  0
 16 24  1  0  0  0  0
 17 18  2  0  0  0  0
 17 32  1  0  0  0  0
 18 33  1  0  0  0  0
 20 22  1  0  0  0  0
 20 35  1  0  0  0  0
 21 25  2  0  0  0  0
 21 36  1  0  0  0  0
 22 26  2  0  0  0  0
 23 37  1  0  0  0  0
 24 38  1  0  0  0  0
 25 26  1  0  0  0  0
 25 39  1  0  0  0  0
 26 40  1  0  0  0  0
 27 42  1  0  0  0  0
 27 43  1  0  0  0  0
 27 44  1  0  0  0  0
M  END
> <PUBCHEM_COMPOUND_CID>
90353911

> <PUBCHEM_CONFORMER_RMSD>
1

> <PUBCHEM_CONFORMER_DIVERSEORDER>
18
50
55
17
30
19
58
64
26
53
15
48
60
13
51
66
14
20
45
59
47
12
42
52
41
23
34
62
11
33
54
70
65
46
40
37
10
49
57
24
8
27
68
35
4
56
67
32
1
28
21
36
72
7
63
38
61
5
6
69
39
22
25
44
71
16
29
3
43
2
9
31

> <PUBCHEM_MMFF94_PARTIAL_CHARGES>
39
1 -0.34
10 0.05
11 0.09
12 0.44
13 0.08
14 -0.14
15 -0.15
16 -0.05
17 -0.15
18 -0.15
19 0.54
2 -0.34
20 -0.15
21 -0.15
22 0.08
23 -0.3
24 0.14
25 -0.15
26 -0.15
27 0.28
28 1.3
3 -0.34
31 0.15
32 0.15
33 0.15
34 0.37
35 0.15
36 0.15
37 0.15
38 0.15
39 0.15
4 -0.36
40 0.15
41 0.27
5 -0.36
6 -0.57
7 -0.73
8 0.3
9 -0.71

> <PUBCHEM_EFFECTIVE_ROTOR_COUNT>
8

> <PUBCHEM_PHARMACOPHORE_FEATURES>
9
1 4 acceptor
1 5 acceptor
1 6 acceptor
1 7 donor
1 8 donor
1 9 acceptor
5 8 9 16 23 24 rings
6 10 11 13 15 17 18 rings
6 14 20 21 22 25 26 rings

> <PUBCHEM_HEAVY_ATOM_COUNT>
28

> <PUBCHEM_ATOM_DEF_STEREO_COUNT>
0

> <PUBCHEM_ATOM_UDEF_STEREO_COUNT>
0

> <PUBCHEM_BOND_DEF_STEREO_COUNT>
0

> <PUBCHEM_BOND_UDEF_STEREO_COUNT>
0

> <PUBCHEM_ISOTOPIC_ATOM_COUNT>
0

> <PUBCHEM_COMPONENT_COUNT>
1

> <PUBCHEM_CACTVS_TAUTO_COUNT>
7

> <PUBCHEM_CONFORMER_ID>
0562B0F700000012

> <PUBCHEM_MMFF94_ENERGY>
83.5332

> <PUBCHEM_FEATURE_SELFOVERLAP>
45.673

> <PUBCHEM_SHAPE_FINGERPRINT>
10 15 18412542141736829800
10319926 262 18334863843577514470
105312 117 15554456231501223847
10554248 39 15123518017110176140
11089746 13 15482669096191964914
11370993 144 18335422331429297695
12403259 118 18340768238214176903
12422481 6 18342734152700130092
12596602 18 17531532113046671993
12988421 55 17703242762458384579
13103583 49 17530966899324056763
13782708 43 13912586253220200856
14223995 32 18269833120968562472
14251764 38 18341341019917899081
14466204 15 18410011018049874218
14849402 71 18117561954066047068
14856354 85 17386012792287190702
14950920 106 17895757438375289971
15142383 8 18333725811031385772
15183329 4 13695863749393753080
15238133 3 18408892841121958196
15326921 28 17243274060131714373
15799311 1 15936414437824338314
16989378 47 12541786589516111392
17780758 139 17822010938974845459
17844677 252 18336553831614486103
21033648 29 18270975561342484063
21054139 6 9439404640517146756
23522609 53 17313971678650019548
2838139 119 15051736399931891546
3117164 225 18336545005730856364
4169191 19 16414626220278540640
445580 182 18334009492988231665
484985 159 16009021822589858083
4938544 92 17531239531316267117
5104073 3 18114456868561676064
6086070 43 16916769800085939850
7226269 152 17775287170502978890
7495541 125 17240756342134278878
9981440 41 18412269407256586491
9995097 60 18343585131560458318
999808 66 12540697002723708155

> <PUBCHEM_SHAPE_MULTIPOLES>
521.85
17.92
3.03
1.47
11.96
1.97
0.27
4.39
7.92
-4.14
-0.02
-0.63
-0.47
1.02

> <PUBCHEM_SHAPE_SELFOVERLAP>
1136.37

> <PUBCHEM_SHAPE_VOLUME>
285.4

> <PUBCHEM_COORDINATE_TYPE>
2
5
10

$$$$
118663076
  -OEChem-05102415143D

 53 56  0     0  0  0  0  0  0999 V2000
    6.0532   -0.4653   -0.2814 O   0  0  0  0  0  0  0  0  0  0  0  0
   -0.9047    3.3719   -0.3464 O   0  0  0  0  0  0  0  0  0  0  0  0
    4.2151   -1.3962    0.7826 N   0  0  0  0  0  0  0  0  0  0  0  0
    0.0724    1.9832    1.2328 N   0  0  0  0  0  0  0  0  0  0  0  0
   -7.3325   -2.0998    0.5076 N   0  0  0  0  0  0  0  0  0  0  0  0
   -6.8641   -2.8381   -0.5131 N   0  0  0  0  0  0  0  0  0  0  0  0
    4.6285   -3.6576    0.0196 C   0  0  0  0  0  0  0  0  0  0  0  0
    5.6131   -3.7548   -1.1128 C   0  0  0  0  0  0  0  0  0  0  0  0
    5.5316   -4.8546   -0.0913 C   0  0  0  0  0  0  0  0  0  0  0  0
    4.8335   -2.6611    1.1094 C   0  0  0  0  0  0  0  0  0  0  0  0
    4.8732   -0.3669    0.0996 C   0  0  0  0  0  0  0  0  0  0  0  0
    4.1221    0.8565   -0.1328 C   0  0  0  0  0  0  0  0  0  0  0  0
    3.0912    1.2176    0.7347 C   0  0  0  0  0  0  0  0  0  0  0  0
    4.4321    1.6687   -1.2238 C   0  0  0  0  0  0  0  0  0  0  0  0
    2.3704    2.3908    0.5115 C   0  0  0  0  0  0  0  0  0  0  0  0
    1.2600    2.7793    1.4444 C   0  0  0  0  0  0  0  0  0  0  0  0
    3.7112    2.8417   -1.4472 C   0  0  0  0  0  0  0  0  0  0  0  0
    2.6805    3.2030   -0.5794 C   0  0  0  0  0  0  0  0  0  0  0  0
   -4.2848   -0.2745    0.1020 C   0  0  0  0  0  0  0  0  0  0  0  0
   -3.9343    0.5112   -0.9961 C   0  0  0  0  0  0  0  0  0  0  0  0
   -2.0904    1.4412    0.2577 C   0  0  0  0  0  0  0  0  0  0  0  0
   -2.8372    1.3691   -0.9182 C   0  0  0  0  0  0  0  0  0  0  0  0
   -0.9463    2.3353    0.3397 C   0  0  0  0  0  0  0  0  0  0  0  0
   -3.5382   -0.2021    1.2780 C   0  0  0  0  0  0  0  0  0  0  0  0
   -2.4407    0.6555    1.3558 C   0  0  0  0  0  0  0  0  0  0  0  0
   -5.4122   -1.1664    0.0478 C   0  0  0  0  0  0  0  0  0  0  0  0
   -4.7113    0.4615   -2.2730 C   0  0  0  0  0  0  0  0  0  0  0  0
   -6.5006   -1.0858    0.8818 C   0  0  0  0  0  0  0  0  0  0  0  0
   -5.6907   -2.2631   -0.7896 C   0  0  0  0  0  0  0  0  0  0  0  0
    3.5794   -3.8140   -0.2060 H   0  0  0  0  0  0  0  0  0  0  0  0
    6.4947   -3.1265   -1.0986 H   0  0  0  0  0  0  0  0  0  0  0  0
    5.2223   -3.9555   -2.1028 H   0  0  0  0  0  0  0  0  0  0  0  0
    6.3512   -4.9522    0.6099 H   0  0  0  0  0  0  0  0  0  0  0  0
    5.0882   -5.7943   -0.3971 H   0  0  0  0  0  0  0  0  0  0  0  0
    5.8974   -2.4965    1.3139 H   0  0  0  0  0  0  0  0  0  0  0  0
    4.3638   -3.0203    2.0309 H   0  0  0  0  0  0  0  0  0  0  0  0
    3.2320   -1.3035    1.0153 H   0  0  0  0  0  0  0  0  0  0  0  0
    2.8460    0.6216    1.6097 H   0  0  0  0  0  0  0  0  0  0  0  0
    5.2285    1.4024   -1.9139 H   0  0  0  0  0  0  0  0  0  0  0  0
    1.5757    2.6353    2.4840 H   0  0  0  0  0  0  0  0  0  0  0  0
    1.0068    3.8397    1.3311 H   0  0  0  0  0  0  0  0  0  0  0  0
    3.9515    3.4732   -2.2975 H   0  0  0  0  0  0  0  0  0  0  0  0
    2.1261    4.1187   -0.7667 H   0  0  0  0  0  0  0  0  0  0  0  0
    0.0313    1.0972    1.7255 H   0  0  0  0  0  0  0  0  0  0  0  0
   -2.5618    1.9760   -1.7777 H   0  0  0  0  0  0  0  0  0  0  0  0
   -3.7949   -0.8039    2.1470 H   0  0  0  0  0  0  0  0  0  0  0  0
   -1.9049    0.7026    2.2993 H   0  0  0  0  0  0  0  0  0  0  0  0
   -4.5093   -0.4702   -2.8104 H   0  0  0  0  0  0  0  0  0  0  0  0
   -5.7866    0.5577   -2.0892 H   0  0  0  0  0  0  0  0  0  0  0  0
   -4.4389    1.2876   -2.9398 H   0  0  0  0  0  0  0  0  0  0  0  0
   -6.7597   -0.4159    1.6901 H   0  0  0  0  0  0  0  0  0  0  0  0
   -5.0896   -2.6745   -1.5883 H   0  0  0  0  0  0  0  0  0  0  0  0
   -8.2316   -2.3442    0.9035 H   0  0  0  0  0  0  0  0  0  0  0  0
  1 11  2  0  0  0  0
  2 23  2  0  0  0  0
  3 10  1  0  0  0  0
  3 11  1  0  0  0  0
  3 37  1  0  0  0  0
  4 16  1  0  0  0  0
  4 23  1  0  0  0  0
  4 44  1  0  0  0  0
  5  6  1  0  0  0  0
  5 28  1  0  0  0  0
  5 53  1  0  0  0  0
  6 29  2  0  0  0  0
  7  8  1  0  0  0  0
  7  9  1  0  0  0  0
  7 10  1  0  0  0  0
  7 30  1  0  0  0  0
  8  9  1  0  0  0  0
  8 31  1  0  0  0  0
  8 32  1  0  0  0  0
  9 33  1  0  0  0  0
  9 34  1  0  0  0  0
 10 35  1  0  0  0  0
 10 36  1  0  0  0  0
 11 12  1  0  0  0  0
 12 13  1  0  0  0  0
 12 14  2  0  0  0  0
 13 15  2  0  0  0  0
 13 38  1  0  0  0  0
 14 17  1  0  0  0  0
 14 39  1  0  0  0  0
 15 16  1  0  0  0  0
 15 18  1  0  0  0  0
 16 40  1  0  0  0  0
 16 41  1  0  0  0  0
 17 18  2  0  0  0  0
 17 42  1  0  0  0  0
 18 43  1  0  0  0  0
 19 20  2  0  0  0  0
 19 24  1  0  0  0  0
 19 26  1  0  0  0  0
 20 22  1  0  0  0  0
 20 27  1  0  0  0  0
 21 22  2  0  0  0  0
 21 23  1  0  0  0  0
 21 25  1  0  0  0  0
 22 45  1  0  0  0  0
 24 25  2  0  0  0  0
 24 46  1  0  0  0  0
 25 47  1  0  0  0  0
 26 28  2  0  0  0  0
 26 29  1  0  0  0  0
 27 48  1  0  0  0  0
 27 49  1  0  0  0  0
 27 50  1  0  0  0  0
 28 51  1  0  0  0  0
 29 52  1  0  0  0  0
M  END
> <PUBCHEM_COMPOUND_CID>
118663076

> <PUBCHEM_CONFORMER_RMSD>
1

> <PUBCHEM_CONFORMER_DIVERSEORDER>
27
90
65
11
67
15
49
92
64
61
105
116
114
44
16
103
120
56
77
109
100
30
110
57
93
119
20
62
26
54
112
129
40
22
4
52
101
125
128
113
32
41
111
74
76
123
50
5
28
1
122
88
23
108
38
79
98
91
6
89
21
107
84
58
14
106
33
117
3
68
36
127
102
55
25
121
59
31
8
9
124
42
43
87
39
75
60
86
115
51
53
72
19
66
17
96
97
70
47
118
104
46
95
10
71
126
80
34
81
94
35
99
130
69
73
85
29
2
82
12
83
45
48
24
13
7
78
18
63
37

> <PUBCHEM_MMFF94_PARTIAL_CHARGES>
46
1 -0.57
10 0.4
11 0.54
12 0.09
13 -0.15
14 -0.15
15 -0.14
16 0.44
17 -0.15
18 -0.15
19 0.05
2 -0.57
20 -0.14
21 0.09
22 -0.15
23 0.54
24 -0.15
25 -0.15
26 -0.05
27 0.14
28 -0.3
29 0.14
3 -0.73
30 0.1
31 0.1
32 0.1
33 0.1
34 0.1
37 0.37
38 0.15
39 0.15
4 -0.73
42 0.15
43 0.15
44 0.37
45 0.15
46 0.15
47 0.15
5 0.3
51 0.15
52 0.15
53 0.27
6 -0.71
7 -0.19
8 -0.2
9 -0.2

> <PUBCHEM_EFFECTIVE_ROTOR_COUNT>
9.6

> <PUBCHEM_PHARMACOPHORE_FEATURES>
9
1 1 acceptor
1 2 acceptor
1 3 donor
1 4 donor
1 5 donor
1 6 acceptor
5 5 6 26 28 29 rings
6 12 13 14 15 17 18 rings
6 19 20 21 22 24 25 rings

> <PUBCHEM_HEAVY_ATOM_COUNT>
29

> <PUBCHEM_ATOM_DEF_STEREO_COUNT>
0

> <PUBCHEM_ATOM_UDEF_STEREO_COUNT>
0

> <PUBCHEM_BOND_DEF_STEREO_COUNT>
0

> <PUBCHEM_BOND_UDEF_STEREO_COUNT>
0

> <PUBCHEM_ISOTOPIC_ATOM_COUNT>
0

> <PUBCHEM_COMPONENT_COUNT>
1

> <PUBCHEM_CACTVS_TAUTO_COUNT>
40

> <PUBCHEM_CONFORMER_ID>
0712A7A40000001B

> <PUBCHEM_MMFF94_ENERGY>
72.5712

> <PUBCHEM_FEATURE_SELFOVERLAP>
45.672

> <PUBCHEM_SHAPE_FINGERPRINT>
10042902 136 17981050718024728190
10622 236 18340486643358099210
10928967 22 18130503136424168268
11069576 57 18408891737505552988
11409948 35 18411417333374789395
11497681 19 18197501719862776534
117089 54 18410862040108490219
12166972 35 18188216411777922134
12559416 39 17978761572432596886
131258 38 18200303468003983070
13383661 66 17558280821875794662
13533116 47 18336830882758927635
13553643 44 18119267291979200019
13782708 43 18187359944033558059
13911852 28 18412543223905272353
14347332 77 18408037420938950241
14480069 147 18408322176890567979
15019793 15 17980475981943627143
15467298 65 17912074255699718623
15475509 35 18201434822218734392
15728490 83 18196657289340068715
15803439 3 17102600610139397884
16067689 302 18118411868144147555
17134984 74 18335986488611290348
17492 89 18338798910321382616
17909252 39 18412260653680357312
19301676 85 17257648920217695975
19303781 99 18266160774118343022
19319366 153 18197779010924273004
20775438 99 18265604575647724706
20775530 9 18119252758003931952
21585483 132 17843949563362236215
21641784 216 15864611952428415613
23522609 53 18052854547983954817
23569914 152 17978756093018321485
2748736 6 8358247121256733422
345986 75 17704358774833346529
3472631 163 7997976769022962001
34797466 226 16805883030380892901
3534868 343 18189631590454314876
439807 62 18407758153601199213
44062 13 18120375350501645756
4435113 14 17897175821661307395
46194498 28 17749389312520044500
5951187 136 10737283516151805074
6058803 2 18196677132680482720
6697151 62 17631998841680291705
6700243 42 17531231877642542661
7970288 3 18341330084582549043
9831232 110 18265048214605768159

> <PUBCHEM_SHAPE_MULTIPOLES>
565.14
19.3
5.52
1.46
13.13
4.28
-0.29
22.91
-2.55
-9.39
-0.59
0.65
-0.44
-0.3

> <PUBCHEM_SHAPE_SELFOVERLAP>
1223.254

> <PUBCHEM_SHAPE_VOLUME>
311.3

> <PUBCHEM_COORDINATE_TYPE>
2
5
10

$$$$
118663023
  -OEChem-05102415143D

 48 51  0     0  0  0  0  0  0999 V2000
    0.8076    2.2892   -0.0071 O   0  0  0  0  0  0  0  0  0  0  0  0
    5.7367   -2.4897   -0.8566 O   0  0  0  0  0  0  0  0  0  0  0  0
   -3.7786    1.0493   -1.7771 O   0  0  0  0  0  0  0  0  0  0  0  0
    1.4099    0.3936    1.1819 N   0  0  0  0  0  0  0  0  0  0  0  0
   -6.9260   -1.1450    0.6915 N   0  0  0  0  0  0  0  0  0  0  0  0
   -6.7764   -1.7474   -0.5005 N   0  0  0  0  0  0  0  0  0  0  0  0
    2.7969    0.7360    1.3340 C   0  0  0  0  0  0  0  0  0  0  0  0
    3.1683    2.0177    2.0626 C   0  0  0  0  0  0  0  0  0  0  0  0
    3.4215    0.6998    2.7195 C   0  0  0  0  0  0  0  0  0  0  0  0
    3.6387    0.3230    0.1800 C   0  0  0  0  0  0  0  0  0  0  0  0
    4.3011   -0.9043    0.2037 C   0  0  0  0  0  0  0  0  0  0  0  0
    3.7647    1.1623   -0.9272 C   0  0  0  0  0  0  0  0  0  0  0  0
    0.4867    1.2043    0.5101 C   0  0  0  0  0  0  0  0  0  0  0  0
    5.0893   -1.2927   -0.8796 C   0  0  0  0  0  0  0  0  0  0  0  0
    4.5532    0.7741   -2.0103 C   0  0  0  0  0  0  0  0  0  0  0  0
   -0.8799    0.7157    0.4187 C   0  0  0  0  0  0  0  0  0  0  0  0
    5.2153   -0.4535   -1.9868 C   0  0  0  0  0  0  0  0  0  0  0  0
   -1.6938    1.1137   -0.6419 C   0  0  0  0  0  0  0  0  0  0  0  0
   -1.3763   -0.1528    1.3910 C   0  0  0  0  0  0  0  0  0  0  0  0
   -3.0041    0.6432   -0.7304 C   0  0  0  0  0  0  0  0  0  0  0  0
   -2.6865   -0.6229    1.3028 C   0  0  0  0  0  0  0  0  0  0  0  0
   -3.5004   -0.2252    0.2419 C   0  0  0  0  0  0  0  0  0  0  0  0
    5.5643   -3.2985    0.3063 C   0  0  0  0  0  0  0  0  0  0  0  0
   -4.8475   -0.7234    0.1691 C   0  0  0  0  0  0  0  0  0  0  0  0
   -5.8000   -0.5173    1.1370 C   0  0  0  0  0  0  0  0  0  0  0  0
   -5.5047   -1.4865   -0.8146 C   0  0  0  0  0  0  0  0  0  0  0  0
   -3.1798    1.9375   -2.7178 C   0  0  0  0  0  0  0  0  0  0  0  0
    2.3745    2.6330    2.4709 H   0  0  0  0  0  0  0  0  0  0  0  0
    4.0315    2.5846    1.7333 H   0  0  0  0  0  0  0  0  0  0  0  0
    2.7907    0.4267    3.5581 H   0  0  0  0  0  0  0  0  0  0  0  0
    4.4552    0.3957    2.8362 H   0  0  0  0  0  0  0  0  0  0  0  0
    1.1340   -0.5165    1.5388 H   0  0  0  0  0  0  0  0  0  0  0  0
    4.1626   -1.5234    1.0839 H   0  0  0  0  0  0  0  0  0  0  0  0
    3.2644    2.1256   -0.9611 H   0  0  0  0  0  0  0  0  0  0  0  0
    4.6531    1.4284   -2.8714 H   0  0  0  0  0  0  0  0  0  0  0  0
    5.8284   -0.7501   -2.8334 H   0  0  0  0  0  0  0  0  0  0  0  0
   -1.2545    1.7841   -1.3724 H   0  0  0  0  0  0  0  0  0  0  0  0
   -0.7870   -0.4642    2.2484 H   0  0  0  0  0  0  0  0  0  0  0  0
   -3.0539   -1.2977    2.0727 H   0  0  0  0  0  0  0  0  0  0  0  0
    6.1503   -4.2110    0.1545 H   0  0  0  0  0  0  0  0  0  0  0  0
    4.5207   -3.6068    0.4312 H   0  0  0  0  0  0  0  0  0  0  0  0
    5.9634   -2.8083    1.2008 H   0  0  0  0  0  0  0  0  0  0  0  0
   -5.7861    0.0074    2.0824 H   0  0  0  0  0  0  0  0  0  0  0  0
   -5.1134   -1.8659   -1.7482 H   0  0  0  0  0  0  0  0  0  0  0  0
   -3.9369    2.1557   -3.4785 H   0  0  0  0  0  0  0  0  0  0  0  0
   -2.3374    1.4692   -3.2385 H   0  0  0  0  0  0  0  0  0  0  0  0
   -2.9114    2.8949   -2.2582 H   0  0  0  0  0  0  0  0  0  0  0  0
   -7.8279   -1.2016    1.1479 H   0  0  0  0  0  0  0  0  0  0  0  0
  1 13  2  0  0  0  0
  2 14  1  0  0  0  0
  2 23  1  0  0  0  0
  3 20  1  0  0  0  0
  3 27  1  0  0  0  0
  4  7  1  0  0  0  0
  4 13  1  0  0  0  0
  4 32  1  0  0  0  0
  5  6  1  0  0  0  0
  5 25  1  0  0  0  0
  5 48  1  0  0  0  0
  6 26  2  0  0  0  0
  7  8  1  0  0  0  0
  7  9  1  0  0  0  0
  7 10  1  0  0  0  0
  8  9  1  0  0  0  0
  8 28  1  0  0  0  0
  8 29  1  0  0  0  0
  9 30  1  0  0  0  0
  9 31  1  0  0  0  0
 10 11  2  0  0  0  0
 10 12  1  0  0  0  0
 11 14  1  0  0  0  0
 11 33  1  0  0  0  0
 12 15  2  0  0  0  0
 12 34  1  0  0  0  0
 13 16  1  0  0  0  0
 14 17  2  0  0  0  0
 15 17  1  0  0  0  0
 15 35  1  0  0  0  0
 16 18  2  0  0  0  0
 16 19  1  0  0  0  0
 17 36  1  0  0  0  0
 18 20  1  0  0  0  0
 18 37  1  0  0  0  0
 19 21  2  0  0  0  0
 19 38  1  0  0  0  0
 20 22  2  0  0  0  0
 21 22  1  0  0  0  0
 21 39  1  0  0  0  0
 22 24  1  0  0  0  0
 23 40  1  0  0  0  0
 23 41  1  0  0  0  0
 23 42  1  0  0  0  0
 24 25  2  0  0  0  0
 24 26  1  0  0  0  0
 25 43  1  0  0  0  0
 26 44  1  0  0  0  0
 27 45  1  0  0  0  0
 27 46  1  0  0  0  0
 27 47  1  0  0  0  0
M  END
> <PUBCHEM_COMPOUND_CID>
118663023

> <PUBCHEM_CONFORMER_RMSD>
0.8

> <PUBCHEM_CONFORMER_DIVERSEORDER>
5
82
69
66
72
61
8
53
31
50
70
80
36
65
49
87
45
71
39
51
63
48
33
62
6
85
16
52
34
25
54
86
46
19
81
35
64
88
23
9
73
7
18
55
28
74
84
11
14
56
21
32
75
17
47
38
15
59
83
44
60
79
24
30
22
77
29
43
57
58
27
76
3
26
42
37
67
68
1
41
10
2
78
12
13
40
4
20

> <PUBCHEM_MMFF94_PARTIAL_CHARGES>
42
1 -0.57
10 -0.03
11 -0.15
12 -0.15
13 0.54
14 0.08
15 -0.15
16 0.09
17 -0.15
18 -0.15
19 -0.15
2 -0.36
20 0.08
21 -0.15
22 0.05
23 0.28
24 -0.05
25 -0.3
26 0.14
27 0.28
28 0.1
29 0.1
3 -0.36
30 0.1
31 0.1
32 0.37
33 0.15
34 0.15
35 0.15
36 0.15
37 0.15
38 0.15
39 0.15
4 -0.58
43 0.15
44 0.15
48 0.27
5 0.3
6 -0.71
7 0.18
8 -0.2
9 -0.2

> <PUBCHEM_EFFECTIVE_ROTOR_COUNT>
7.6

> <PUBCHEM_PHARMACOPHORE_FEATURES>
9
1 1 acceptor
1 2 acceptor
1 3 acceptor
1 4 donor
1 5 donor
1 6 acceptor
5 5 6 24 25 26 rings
6 10 11 12 14 15 17 rings
6 16 18 19 20 21 22 rings

> <PUBCHEM_HEAVY_ATOM_COUNT>
27

> <PUBCHEM_ATOM_DEF_STEREO_COUNT>
0

> <PUBCHEM_ATOM_UDEF_STEREO_COUNT>
0

> <PUBCHEM_BOND_DEF_STEREO_COUNT>
0

> <PUBCHEM_BOND_UDEF_STEREO_COUNT>
0

> <PUBCHEM_ISOTOPIC_ATOM_COUNT>
0

> <PUBCHEM_COMPONENT_COUNT>
1

> <PUBCHEM_CACTVS_TAUTO_COUNT>
9

> <PUBCHEM_CONFORMER_ID>
0712A76F00000005

> <PUBCHEM_MMFF94_ENERGY>
89.8062

> <PUBCHEM_FEATURE_SELFOVERLAP>
45.673

> <PUBCHEM_SHAPE_FINGERPRINT>
10319926 262 15769507443172310331
10554248 39 15358791515000535283
10670039 82 16660644016677013766
10906281 52 17022899018212759121
12422481 6 15410906158311552373
12616971 3 16271921623357475573
12633257 1 15841549682633758332
12788726 201 17312818282283821921
13150687 139 17604727667956033006
13533116 47 17346320444003822162
13685833 64 18060140938019288498
13782708 43 18412823616650749819
13955234 65 17845362405817817264
14211702 104 17772749614258553559
14251764 30 18412546504906761237
14341114 176 14333138459474707444
14347332 77 18334858277447377709
14347424 109 16559034895542159435
14528608 73 15719110275060970500
14565420 104 16413771925466135392
14910302 57 18408878568502800807
14951699 99 11743825985391282874
15183329 4 16877661262190953573
15352257 5 18341899601567866023
15475509 35 18202561749018646226
16994733 274 12108051290093832463
17844677 252 18060140959658084545
1813 80 17703522033995377768
18222031 100 18335137635263940705
1979834 28 14476691780023892204
21033650 10 17313949593564659800
21304303 94 17967258607121943490
21344244 78 15697998527006607066
21421861 104 16056873646519358920
21641784 216 16587735422246074813
21792934 111 14045755790141191227
21859007 373 15409790063878305129
221357 26 17822295703411221412
22393880 68 17167864136855253820
22849339 104 17241056512618891691
2303208 19 18413103970503358965
23503953 91 14476958999582225000
23522609 53 18053981473744162593
23559900 14 17822863098845424901
23569943 247 18340491045885344283
3004659 81 18040436569000785922
3472631 163 8214136339917030584
34797466 226 17386012809508524069
3680242 22 14117528674553645563
3886686 26 15261760532312615775
4073 2 17772184464585063594
439807 62 18334581204643860062
46194498 28 18040439936054842244
465052 167 17346608477833476004
504579 68 15936685982641201783
5104073 3 15051439574662650847
513532 50 17530681005717288740
56633871 153 15195016981172270884
6608658 132 15357695241176194519
8509985 295 13110966426694656138
960060 61 18334020514322706106

> <PUBCHEM_SHAPE_MULTIPOLES>
523.1
17.07
2.33
2.25
11.16
0.98
0.15
11.58
-4.92
-2.13
-0.65
-1.81
-1.04
1.98

> <PUBCHEM_SHAPE_SELFOVERLAP>
1144.713

> <PUBCHEM_SHAPE_VOLUME>
285.7

> <PUBCHEM_COORDINATE_TYPE>
2
5
10

$$$$
90354245
  -OEChem-05102415143D

 60 63  0     1  0  0  0  0  0999 V2000
    0.7856    1.0800    2.3355 O   0  0  0  0  0  0  0  0  0  0  0  0
   -3.3521    0.6997   -1.8681 O   0  0  0  0  0  0  0  0  0  0  0  0
    3.0179   -1.6825   -0.4317 N   0  0  0  0  0  0  0  0  0  0  0  0
    3.5361   -4.5037   -0.0703 N   0  0  0  0  0  0  0  0  0  0  0  0
    1.2700    0.5412    0.1330 N   0  0  0  0  0  0  0  0  0  0  0  0
   -7.0978   -1.0185    0.0883 N   0  0  0  0  0  0  0  0  0  0  0  0
   -7.3413    0.2276   -0.3522 N   0  0  0  0  0  0  0  0  0  0  0  0
    3.6455   -2.1913    0.7938 C   0  0  0  0  0  0  0  0  0  0  0  0
    3.3419   -2.5499   -1.5711 C   0  0  0  0  0  0  0  0  0  0  0  0
    3.4315   -0.3054   -0.6936 C   0  0  0  0  0  0  0  0  0  0  0  0
    3.2129   -3.6357    1.0686 C   0  0  0  0  0  0  0  0  0  0  0  0
    2.9105   -3.9946   -1.2969 C   0  0  0  0  0  0  0  0  0  0  0  0
    2.7065    0.6775    0.2398 C   0  0  1  0  0  0  0  0  0  0  0  0
    3.1204   -5.8803    0.1917 C   0  0  0  0  0  0  0  0  0  0  0  0
    3.1300    2.1092   -0.0210 C   0  0  0  0  0  0  0  0  0  0  0  0
    4.2128    2.6531    0.6700 C   0  0  0  0  0  0  0  0  0  0  0  0
    2.4368    2.8830   -0.9519 C   0  0  0  0  0  0  0  0  0  0  0  0
    0.4230    0.7579    1.2071 C   0  0  0  0  0  0  0  0  0  0  0  0
   -1.0238    0.5511    0.9410 C   0  0  0  0  0  0  0  0  0  0  0  0
    4.6026    3.9708    0.4301 C   0  0  0  0  0  0  0  0  0  0  0  0
    2.8266    4.2008   -1.1918 C   0  0  0  0  0  0  0  0  0  0  0  0
    3.9096    4.7445   -0.5010 C   0  0  0  0  0  0  0  0  0  0  0  0
   -1.5275    0.7213   -0.3485 C   0  0  0  0  0  0  0  0  0  0  0  0
   -1.8785    0.1850    1.9811 C   0  0  0  0  0  0  0  0  0  0  0  0
   -2.8859    0.5253   -0.5983 C   0  0  0  0  0  0  0  0  0  0  0  0
   -3.7406    0.1592    0.4416 C   0  0  0  0  0  0  0  0  0  0  0  0
   -3.2368   -0.0107    1.7313 C   0  0  0  0  0  0  0  0  0  0  0  0
   -5.1438   -0.0495    0.2059 C   0  0  0  0  0  0  0  0  0  0  0  0
   -5.7968   -1.2360    0.4354 C   0  0  0  0  0  0  0  0  0  0  0  0
   -6.1440    0.8148   -0.2781 C   0  0  0  0  0  0  0  0  0  0  0  0
   -3.3516   -0.4439   -2.7194 C   0  0  0  0  0  0  0  0  0  0  0  0
    4.7408   -2.1440    0.7235 H   0  0  0  0  0  0  0  0  0  0  0  0
    3.3499   -1.5966    1.6642 H   0  0  0  0  0  0  0  0  0  0  0  0
    2.8137   -2.2015   -2.4671 H   0  0  0  0  0  0  0  0  0  0  0  0
    4.4175   -2.5195   -1.7921 H   0  0  0  0  0  0  0  0  0  0  0  0
    3.1692   -0.0380   -1.7274 H   0  0  0  0  0  0  0  0  0  0  0  0
    4.5214   -0.1907   -0.6182 H   0  0  0  0  0  0  0  0  0  0  0  0
    3.7388   -3.9890    1.9639 H   0  0  0  0  0  0  0  0  0  0  0  0
    2.1370   -3.6630    1.2894 H   0  0  0  0  0  0  0  0  0  0  0  0
    1.8152   -4.0455   -1.2280 H   0  0  0  0  0  0  0  0  0  0  0  0
    3.2127   -4.6126   -2.1511 H   0  0  0  0  0  0  0  0  0  0  0  0
    2.9697    0.4601    1.2819 H   0  0  0  0  0  0  0  0  0  0  0  0
    3.6248   -6.2710    1.0824 H   0  0  0  0  0  0  0  0  0  0  0  0
    3.4042   -6.5326   -0.6416 H   0  0  0  0  0  0  0  0  0  0  0  0
    2.0383   -5.9653    0.3431 H   0  0  0  0  0  0  0  0  0  0  0  0
    0.9038    0.2456   -0.7655 H   0  0  0  0  0  0  0  0  0  0  0  0
    4.7626    2.0601    1.3960 H   0  0  0  0  0  0  0  0  0  0  0  0
    1.6000    2.4826   -1.5172 H   0  0  0  0  0  0  0  0  0  0  0  0
    5.4462    4.3941    0.9674 H   0  0  0  0  0  0  0  0  0  0  0  0
    2.2895    4.8024   -1.9193 H   0  0  0  0  0  0  0  0  0  0  0  0
    4.2138    5.7701   -0.6887 H   0  0  0  0  0  0  0  0  0  0  0  0
   -0.8987    1.0393   -1.1754 H   0  0  0  0  0  0  0  0  0  0  0  0
   -1.5044    0.0437    2.9916 H   0  0  0  0  0  0  0  0  0  0  0  0
   -3.8856   -0.2926    2.5575 H   0  0  0  0  0  0  0  0  0  0  0  0
   -5.4668   -2.1976    0.8037 H   0  0  0  0  0  0  0  0  0  0  0  0
   -6.0545    1.8488   -0.5806 H   0  0  0  0  0  0  0  0  0  0  0  0
   -7.8689   -1.6733    0.1262 H   0  0  0  0  0  0  0  0  0  0  0  0
   -3.7952   -0.1575   -3.6769 H   0  0  0  0  0  0  0  0  0  0  0  0
   -3.9457   -1.2559   -2.2892 H   0  0  0  0  0  0  0  0  0  0  0  0
   -2.3268   -0.7849   -2.8978 H   0  0  0  0  0  0  0  0  0  0  0  0
  1 18  2  0  0  0  0
  2 25  1  0  0  0  0
  2 31  1  0  0  0  0
  3  8  1  0  0  0  0
  3  9  1  0  0  0  0
  3 10  1  0  0  0  0
  4 11  1  0  0  0  0
  4 12  1  0  0  0  0
  4 14  1  0  0  0  0
  5 13  1  0  0  0  0
  5 18  1  0  0  0  0
  5 46  1  0  0  0  0
  6  7  1  0  0  0  0
  6 29  1  0  0  0  0
  6 57  1  0  0  0  0
  7 30  2  0  0  0  0
  8 11  1  0  0  0  0
  8 32  1  0  0  0  0
  8 33  1  0  0  0  0
  9 12  1  0  0  0  0
  9 34  1  0  0  0  0
  9 35  1  0  0  0  0
 10 13  1  0  0  0  0
 10 36  1  0  0  0  0
 10 37  1  0  0  0  0
 11 38  1  0  0  0  0
 11 39  1  0  0  0  0
 12 40  1  0  0  0  0
 12 41  1  0  0  0  0
 13 15  1  0  0  0  0
 13 42  1  0  0  0  0
 14 43  1  0  0  0  0
 14 44  1  0  0  0  0
 14 45  1  0  0  0  0
 15 16  2  0  0  0  0
 15 17  1  0  0  0  0
 16 20  1  0  0  0  0
 16 47  1  0  0  0  0
 17 21  2  0  0  0  0
 17 48  1  0  0  0  0
 18 19  1  0  0  0  0
 19 23  2  0  0  0  0
 19 24  1  0  0  0  0
 20 22  2  0  0  0  0
 20 49  1  0  0  0  0
 21 22  1  0  0  0  0
 21 50  1  0  0  0  0
 22 51  1  0  0  0  0
 23 25  1  0  0  0  0
 23 52  1  0  0  0  0
 24 27  2  0  0  0  0
 24 53  1  0  0  0  0
 25 26  2  0  0  0  0
 26 27  1  0  0  0  0
 26 28  1  0  0  0  0
 27 54  1  0  0  0  0
 28 29  2  0  0  0  0
 28 30  1  0  0  0  0
 29 55  1  0  0  0  0
 30 56  1  0  0  0  0
 31 58  1  0  0  0  0
 31 59  1  0  0  0  0
 31 60  1  0  0  0  0
M  END
> <PUBCHEM_COMPOUND_CID>
90354245

> <PUBCHEM_CONFORMER_RMSD>
1

> <PUBCHEM_CONFORMER_DIVERSEORDER>
1
11
31
57
54
65
30
58
48
28
13
36
39
55
63
4
34
51
56
33
12
35
52
47
10
26
9
24
62
3
61
16
32
20
49
29
45
59
64
21
42
50
40
38
2
23
25
6
37
46
43
53
17
60
41
44
27
5
19
7
8
15
14
18
22

> <PUBCHEM_MMFF94_PARTIAL_CHARGES>
43
1 -0.57
10 0.27
11 0.27
12 0.27
13 0.44
14 0.27
15 -0.14
16 -0.15
17 -0.15
18 0.54
19 0.09
2 -0.36
20 -0.15
21 -0.15
22 -0.15
23 -0.15
24 -0.15
25 0.08
26 0.05
27 -0.15
28 -0.05
29 -0.3
3 -0.81
30 0.14
31 0.28
4 -0.81
46 0.37
47 0.15
48 0.15
49 0.15
5 -0.73
50 0.15
51 0.15
52 0.15
53 0.15
54 0.15
55 0.15
56 0.15
57 0.27
6 0.3
7 -0.71
8 0.27
9 0.27

> <PUBCHEM_EFFECTIVE_ROTOR_COUNT>
9.2

> <PUBCHEM_PHARMACOPHORE_FEATURES>
11
1 1 acceptor
1 2 acceptor
1 3 cation
1 4 cation
1 5 donor
1 6 donor
1 7 acceptor
5 6 7 28 29 30 rings
6 15 16 17 20 21 22 rings
6 19 23 24 25 26 27 rings
6 3 4 8 9 11 12 rings

> <PUBCHEM_HEAVY_ATOM_COUNT>
31

> <PUBCHEM_ATOM_DEF_STEREO_COUNT>
0

> <PUBCHEM_ATOM_UDEF_STEREO_COUNT>
1

> <PUBCHEM_BOND_DEF_STEREO_COUNT>
0

> <PUBCHEM_BOND_UDEF_STEREO_COUNT>
0

> <PUBCHEM_ISOTOPIC_ATOM_COUNT>
0

> <PUBCHEM_COMPONENT_COUNT>
1

> <PUBCHEM_CACTVS_TAUTO_COUNT>
7

> <PUBCHEM_CONFORMER_ID>
0562B24500000001

> <PUBCHEM_MMFF94_ENERGY>
87.3029

> <PUBCHEM_FEATURE_SELFOVERLAP>
55.824

> <PUBCHEM_SHAPE_FINGERPRINT>
10554248 39 18201995492230499197
10670039 82 14635150049770699311
10721379 63 18341063942824026340
11135609 149 18192413200326383870
11377469 6 17844539803278502626
11719270 70 18339922731580326328
11991303 11 17829621900718445548
12107183 9 17911251520427602329
12788726 201 17036412874562894314
13540713 5 17702124507366177657
13911987 19 17978529833440534736
13955234 65 18411984675997865456
14675020 138 18129933620051866312
15484559 13 18127983107883255412
17138139 8 17197674302060115478
17909252 39 18334861580457109220
1813 80 18127136260364318526
19319366 153 18200874096847044070
19427546 62 18121782987483549656
20721686 124 18334855065376518202
21304303 282 17623280985712937604
21360442 33 18336544911638117907
23522609 53 17773341053051705625
23559900 14 18334580143791608912
24941158 1 18261944194079714452
3004659 81 18060425689961054885
34797466 226 18260829341504171505
404807 14 17904769882212490563
4093350 32 18335702784388557297
46194498 28 18335138691435577036
504843 32 17833274495346444532
5223283 242 18046625612553325501
59025328 239 17981008996100440166
6025842 7 18411984697594079432
6695519 79 17837513086252657707
70251023 43 18337394829192579049

> <PUBCHEM_SHAPE_MULTIPOLES>
601.32
14.42
6.59
1.76
28.16
5.61
-0.27
-0.8
-1.41
-18.31
-1.1
0.78
0.1
0.12

> <PUBCHEM_SHAPE_SELFOVERLAP>
1289.734

> <PUBCHEM_SHAPE_VOLUME>
333.7

> <PUBCHEM_COORDINATE_TYPE>
2
5
10

$$$$
90354005
  -OEChem-05102415143D

 43 46  0     0  0  0  0  0  0999 V2000
    5.5378   -2.3137    0.2981 O   0  0  0  0  0  0  0  0  0  0  0  0
    6.4456   -1.0458   -1.5392 O   0  0  0  0  0  0  0  0  0  0  0  0
   -4.3409    1.7356   -0.6502 O   0  0  0  0  0  0  0  0  0  0  0  0
    0.6579    2.4285   -0.1980 O   0  0  0  0  0  0  0  0  0  0  0  0
    1.2388    0.8601    1.4089 N   0  0  0  0  0  0  0  0  0  0  0  0
   -6.4203   -2.3763    0.2584 N   0  0  0  0  0  0  0  0  0  0  0  0
   -6.8520   -1.5833   -0.7371 N   0  0  0  0  0  0  0  0  0  0  0  0
    3.5953    0.7584    0.7999 C   0  0  0  0  0  0  0  0  0  0  0  0
    2.5574    1.3733    1.6786 C   0  0  0  0  0  0  0  0  0  0  0  0
    4.9937   -1.0693    0.2099 C   0  0  0  0  0  0  0  0  0  0  0  0
    4.0321   -0.5449    1.0491 C   0  0  0  0  0  0  0  0  0  0  0  0
    5.5122   -0.3454   -0.8392 C   0  0  0  0  0  0  0  0  0  0  0  0
   -0.9499    0.8073    0.3363 C   0  0  0  0  0  0  0  0  0  0  0  0
   -3.4587   -0.3826    0.0659 C   0  0  0  0  0  0  0  0  0  0  0  0
    4.1251    1.4981   -0.2720 C   0  0  0  0  0  0  0  0  0  0  0  0
    5.0979    0.9431   -1.1070 C   0  0  0  0  0  0  0  0  0  0  0  0
   -3.2932    0.9709   -0.2291 C   0  0  0  0  0  0  0  0  0  0  0  0
    0.3867    1.4400    0.4786 C   0  0  0  0  0  0  0  0  0  0  0  0
   -2.0387    1.5656   -0.0938 C   0  0  0  0  0  0  0  0  0  0  0  0
   -1.1154   -0.5461    0.6313 C   0  0  0  0  0  0  0  0  0  0  0  0
   -2.3699   -1.1408    0.4963 C   0  0  0  0  0  0  0  0  0  0  0  0
   -4.7428   -1.0162   -0.0684 C   0  0  0  0  0  0  0  0  0  0  0  0
    6.4565   -2.2919   -0.8135 C   0  0  0  0  0  0  0  0  0  0  0  0
   -5.1629   -2.0781    0.6948 C   0  0  0  0  0  0  0  0  0  0  0  0
   -5.8229   -0.7544   -0.9323 C   0  0  0  0  0  0  0  0  0  0  0  0
   -4.0697    3.1078   -0.9261 C   0  0  0  0  0  0  0  0  0  0  0  0
    2.7852    1.1632    2.7302 H   0  0  0  0  0  0  0  0  0  0  0  0
    2.5480    2.4645    1.5726 H   0  0  0  0  0  0  0  0  0  0  0  0
    3.6331   -1.1284    1.8719 H   0  0  0  0  0  0  0  0  0  0  0  0
    3.7821    2.5118   -0.4644 H   0  0  0  0  0  0  0  0  0  0  0  0
    0.9326    0.0753    1.9737 H   0  0  0  0  0  0  0  0  0  0  0  0
    5.5088    1.5100   -1.9346 H   0  0  0  0  0  0  0  0  0  0  0  0
   -1.8538    2.6136   -0.3023 H   0  0  0  0  0  0  0  0  0  0  0  0
   -2.4558   -2.2024    0.7143 H   0  0  0  0  0  0  0  0  0  0  0  0
   -0.2877   -1.1803    0.9343 H   0  0  0  0  0  0  0  0  0  0  0  0
    6.1923   -3.1019   -1.5030 H   0  0  0  0  0  0  0  0  0  0  0  0
    7.4698   -2.4686   -0.4348 H   0  0  0  0  0  0  0  0  0  0  0  0
   -4.7081   -2.6410    1.4983 H   0  0  0  0  0  0  0  0  0  0  0  0
   -5.9147   -0.0085   -1.7089 H   0  0  0  0  0  0  0  0  0  0  0  0
   -7.0388   -3.1036    0.5950 H   0  0  0  0  0  0  0  0  0  0  0  0
   -3.7541    3.6478   -0.0268 H   0  0  0  0  0  0  0  0  0  0  0  0
   -3.3642    3.2231   -1.7562 H   0  0  0  0  0  0  0  0  0  0  0  0
   -5.0124    3.5613   -1.2501 H   0  0  0  0  0  0  0  0  0  0  0  0
  1 10  1  0  0  0  0
  1 23  1  0  0  0  0
  2 12  1  0  0  0  0
  2 23  1  0  0  0  0
  3 17  1  0  0  0  0
  3 26  1  0  0  0  0
  4 18  2  0  0  0  0
  5  9  1  0  0  0  0
  5 18  1  0  0  0  0
  5 31  1  0  0  0  0
  6  7  1  0  0  0  0
  6 24  1  0  0  0  0
  6 40  1  0  0  0  0
  7 25  2  0  0  0  0
  8  9  1  0  0  0  0
  8 11  2  0  0  0  0
  8 15  1  0  0  0  0
  9 27  1  0  0  0  0
  9 28  1  0  0  0  0
 10 11  1  0  0  0  0
 10 12  2  0  0  0  0
 11 29  1  0  0  0  0
 12 16  1  0  0  0  0
 13 18  1  0  0  0  0
 13 19  2  0  0  0  0
 13 20  1  0  0  0  0
 14 17  2  0  0  0  0
 14 21  1  0  0  0  0
 14 22  1  0  0  0  0
 15 16  2  0  0  0  0
 15 30  1  0  0  0  0
 16 32  1  0  0  0  0
 17 19  1  0  0  0  0
 19 33  1  0  0  0  0
 20 21  2  0  0  0  0
 20 35  1  0  0  0  0
 21 34  1  0  0  0  0
 22 24  2  0  0  0  0
 22 25  1  0  0  0  0
 23 36  1  0  0  0  0
 23 37  1  0  0  0  0
 24 38  1  0  0  0  0
 25 39  1  0  0  0  0
 26 41  1  0  0  0  0
 26 42  1  0  0  0  0
 26 43  1  0  0  0  0
M  END
> <PUBCHEM_COMPOUND_CID>
90354005

> <PUBCHEM_CONFORMER_RMSD>
0.8

> <PUBCHEM_CONFORMER_DIVERSEORDER>
10
23
31
29
37
34
2
52
47
44
22
28
17
32
38
55
43
33
45
5
15
46
42
25
3
35
49
11
9
7
26
21
53
36
1
50
27
40
6
54
51
48
13
12
19
24
16
41
4
8
39
18
14
20
30

> <PUBCHEM_MMFF94_PARTIAL_CHARGES>
36
1 -0.36
10 0.08
11 -0.15
12 0.08
13 0.09
14 0.05
15 -0.15
16 -0.15
17 0.08
18 0.54
19 -0.15
2 -0.36
20 -0.15
21 -0.15
22 -0.05
23 0.56
24 -0.3
25 0.14
26 0.28
29 0.15
3 -0.36
30 0.15
31 0.37
32 0.15
33 0.15
34 0.15
35 0.15
38 0.15
39 0.15
4 -0.57
40 0.27
5 -0.73
6 0.3
7 -0.71
8 -0.14
9 0.44

> <PUBCHEM_EFFECTIVE_ROTOR_COUNT>
6.6

> <PUBCHEM_PHARMACOPHORE_FEATURES>
11
1 1 acceptor
1 2 acceptor
1 3 acceptor
1 4 acceptor
1 5 donor
1 6 donor
1 7 acceptor
5 1 2 10 12 23 rings
5 6 7 22 24 25 rings
6 13 14 17 19 20 21 rings
6 8 10 11 12 15 16 rings

> <PUBCHEM_HEAVY_ATOM_COUNT>
26

> <PUBCHEM_ATOM_DEF_STEREO_COUNT>
0

> <PUBCHEM_ATOM_UDEF_STEREO_COUNT>
0

> <PUBCHEM_BOND_DEF_STEREO_COUNT>
0

> <PUBCHEM_BOND_UDEF_STEREO_COUNT>
0

> <PUBCHEM_ISOTOPIC_ATOM_COUNT>
0

> <PUBCHEM_COMPONENT_COUNT>
1

> <PUBCHEM_CACTVS_TAUTO_COUNT>
7

> <PUBCHEM_CONFORMER_ID>
0562B1550000000A

> <PUBCHEM_MMFF94_ENERGY>
73.0852

> <PUBCHEM_FEATURE_SELFOVERLAP>
55.979

> <PUBCHEM_SHAPE_FINGERPRINT>
10670039 82 17894628128359268860
11524674 6 16702022006896516063
11545043 162 18273209781470106393
11578080 2 16879892056037506607
117089 54 17558004848804931886
11796584 16 18268712719273135316
12166972 35 18261398861961087948
12422481 6 13326587262687838425
12616971 3 15051729815435627769
12954195 1 18409726232466092881
13073987 5 17917992793404716952
13533116 47 17845653775776399648
13673619 4 18272653458593051128
13685833 64 17989207066418911938
13690498 29 18335420162454800533
13782708 43 18131627924340760007
13911987 19 14201398278985251577
13955234 65 17773588524334555392
14118638 360 18341897428594041000
14123256 34 17989495095800702422
14216079 64 18343581871960011167
14347332 77 18411696599878064125
14528608 73 16732978743226579552
15183329 4 18186520986264192168
15348495 7 10015863184843526332
15352257 5 18342742909790358319
15510800 12 17559684945542484118
17844677 252 18409731776556994984
21267235 1 18261393408312535675
21682296 61 18272936033545645307
221357 26 18409445916333766000
2215653 11 18337667615751052019
2297311 6 18334574681437311217
2303208 19 18201716266972268697
23522609 53 17983893139301720697
23559900 14 18262795310880408401
23569943 247 18343024341892087595
270888 7 11097867306709558662
2748736 6 10809333460425996103
2838139 119 7781527979214591722
3004659 81 18333449820917712178
3472631 163 10809344451378694856
34797466 226 17531528796825686117
3663271 9 11455879248895097300
439807 62 18410295800157073758
44062 13 18411415077255825684
46194498 28 17968093196271018916
465052 167 17989491831540953484
497634 4 17967809440761294733
5104073 3 17275387590606393240
54039377 194 18060147501568470694
59755656 215 18335131004108885075
59755656 520 18270121189643173849
6608658 132 16588297246775893205
86090 222 16988019240440646854
8863177 126 18130222769570365234
960060 61 18260551138981128472

> <PUBCHEM_SHAPE_MULTIPOLES>
496.65
18.97
2.81
1.2
2.59
0.37
0.08
-13.04
-6.23
-1.66
-0.39
1.07
0.13
1.45

> <PUBCHEM_SHAPE_SELFOVERLAP>
1102.689

> <PUBCHEM_SHAPE_VOLUME>
266.1

> <PUBCHEM_COORDINATE_TYPE>
2
5
10

$$$$
118663055
  -OEChem-05102415143D

 50 52  0     0  0  0  0  0  0999 V2000
   -2.8063   -1.7337    0.7995 O   0  0  0  0  0  0  0  0  0  0  0  0
    0.1845    3.1874   -0.5327 O   0  0  0  0  0  0  0  0  0  0  0  0
    6.1168   -1.6171    1.0219 O   0  0  0  0  0  0  0  0  0  0  0  0
    0.8444    1.7252    1.1417 N   0  0  0  0  0  0  0  0  0  0  0  0
    4.4733   -2.6692   -0.2649 N   0  0  0  0  0  0  0  0  0  0  0  0
   -6.9993   -1.1404   -0.8978 N   0  0  0  0  0  0  0  0  0  0  0  0
   -7.0726   -1.4440    0.4094 N   0  0  0  0  0  0  0  0  0  0  0  0
    3.1929    1.6510    0.4738 C   0  0  0  0  0  0  0  0  0  0  0  0
    2.1572    2.2922    1.3515 C   0  0  0  0  0  0  0  0  0  0  0  0
   -3.8394    0.2790   -0.0129 C   0  0  0  0  0  0  0  0  0  0  0  0
   -1.3605    1.5514    0.1268 C   0  0  0  0  0  0  0  0  0  0  0  0
    3.6717    0.3762    0.7761 C   0  0  0  0  0  0  0  0  0  0  0  0
   -2.7186   -0.4237    0.4300 C   0  0  0  0  0  0  0  0  0  0  0  0
    4.6331   -0.2196   -0.0402 C   0  0  0  0  0  0  0  0  0  0  0  0
   -1.4792    0.2125    0.4997 C   0  0  0  0  0  0  0  0  0  0  0  0
   -0.0690    2.2156    0.2011 C   0  0  0  0  0  0  0  0  0  0  0  0
   -3.7206    1.6178   -0.3861 C   0  0  0  0  0  0  0  0  0  0  0  0
   -2.4813    2.2541   -0.3161 C   0  0  0  0  0  0  0  0  0  0  0  0
   -5.1269   -0.3571   -0.0909 C   0  0  0  0  0  0  0  0  0  0  0  0
    3.6757    2.3301   -0.6449 C   0  0  0  0  0  0  0  0  0  0  0  0
    5.1159    0.4595   -1.1589 C   0  0  0  0  0  0  0  0  0  0  0  0
    4.6371    1.7342   -1.4614 C   0  0  0  0  0  0  0  0  0  0  0  0
    5.1319   -1.5490    0.2746 C   0  0  0  0  0  0  0  0  0  0  0  0
   -5.8536   -0.4889   -1.2489 C   0  0  0  0  0  0  0  0  0  0  0  0
   -5.9260   -0.9631    0.8971 C   0  0  0  0  0  0  0  0  0  0  0  0
    4.9037   -4.0316    0.0164 C   0  0  0  0  0  0  0  0  0  0  0  0
    3.3128   -2.5410   -1.1438 C   0  0  0  0  0  0  0  0  0  0  0  0
   -2.5976   -2.7081   -0.2200 C   0  0  0  0  0  0  0  0  0  0  0  0
    2.4182    2.1465    2.4061 H   0  0  0  0  0  0  0  0  0  0  0  0
    2.1133    3.3739    1.1800 H   0  0  0  0  0  0  0  0  0  0  0  0
    3.2950   -0.1541    1.6479 H   0  0  0  0  0  0  0  0  0  0  0  0
    0.5820    0.9644    1.7590 H   0  0  0  0  0  0  0  0  0  0  0  0
   -0.6223   -0.3740    0.8197 H   0  0  0  0  0  0  0  0  0  0  0  0
   -4.5823    2.1862   -0.7288 H   0  0  0  0  0  0  0  0  0  0  0  0
   -2.4111    3.2994   -0.6058 H   0  0  0  0  0  0  0  0  0  0  0  0
    3.3105    3.3230   -0.8935 H   0  0  0  0  0  0  0  0  0  0  0  0
    5.8647    0.0046   -1.8023 H   0  0  0  0  0  0  0  0  0  0  0  0
    5.0124    2.2626   -2.3329 H   0  0  0  0  0  0  0  0  0  0  0  0
   -5.6687   -0.1889   -2.2712 H   0  0  0  0  0  0  0  0  0  0  0  0
   -5.7245   -1.0758    1.9531 H   0  0  0  0  0  0  0  0  0  0  0  0
   -7.7701   -1.4090   -1.4967 H   0  0  0  0  0  0  0  0  0  0  0  0
    5.7734   -4.0398    0.6782 H   0  0  0  0  0  0  0  0  0  0  0  0
    5.1657   -4.5217   -0.9256 H   0  0  0  0  0  0  0  0  0  0  0  0
    4.0823   -4.5701    0.4975 H   0  0  0  0  0  0  0  0  0  0  0  0
    2.4709   -3.0652   -0.6811 H   0  0  0  0  0  0  0  0  0  0  0  0
    3.0119   -1.5121   -1.3387 H   0  0  0  0  0  0  0  0  0  0  0  0
    3.5502   -3.0186   -2.0995 H   0  0  0  0  0  0  0  0  0  0  0  0
   -2.7516   -3.6985    0.2170 H   0  0  0  0  0  0  0  0  0  0  0  0
   -1.5720   -2.6494   -0.5982 H   0  0  0  0  0  0  0  0  0  0  0  0
   -3.3071   -2.5761   -1.0427 H   0  0  0  0  0  0  0  0  0  0  0  0
  1 13  1  0  0  0  0
  1 28  1  0  0  0  0
  2 16  2  0  0  0  0
  3 23  2  0  0  0  0
  4  9  1  0  0  0  0
  4 16  1  0  0  0  0
  4 32  1  0  0  0  0
  5 23  1  0  0  0  0
  5 26  1  0  0  0  0
  5 27  1  0  0  0  0
  6  7  1  0  0  0  0
  6 24  1  0  0  0  0
  6 41  1  0  0  0  0
  7 25  2  0  0  0  0
  8  9  1  0  0  0  0
  8 12  2  0  0  0  0
  8 20  1  0  0  0  0
  9 29  1  0  0  0  0
  9 30  1  0  0  0  0
 10 13  2  0  0  0  0
 10 17  1  0  0  0  0
 10 19  1  0  0  0  0
 11 15  2  0  0  0  0
 11 16  1  0  0  0  0
 11 18  1  0  0  0  0
 12 14  1  0  0  0  0
 12 31  1  0  0  0  0
 13 15  1  0  0  0  0
 14 21  2  0  0  0  0
 14 23  1  0  0  0  0
 15 33  1  0  0  0  0
 17 18  2  0  0  0  0
 17 34  1  0  0  0  0
 18 35  1  0  0  0  0
 19 24  2  0  0  0  0
 19 25  1  0  0  0  0
 20 22  2  0  0  0  0
 20 36  1  0  0  0  0
 21 22  1  0  0  0  0
 21 37  1  0  0  0  0
 22 38  1  0  0  0  0
 24 39  1  0  0  0  0
 25 40  1  0  0  0  0
 26 42  1  0  0  0  0
 26 43  1  0  0  0  0
 26 44  1  0  0  0  0
 27 45  1  0  0  0  0
 27 46  1  0  0  0  0
 27 47  1  0  0  0  0
 28 48  1  0  0  0  0
 28 49  1  0  0  0  0
 28 50  1  0  0  0  0
M  END
> <PUBCHEM_COMPOUND_CID>
118663055

> <PUBCHEM_CONFORMER_RMSD>
1

> <PUBCHEM_CONFORMER_DIVERSEORDER>
1
58
44
86
48
75
55
39
57
84
94
90
20
85
64
28
30
26
96
95
36
69
49
78
29
91
56
74
73
82
24
70
83
98
35
18
92
66
72
59
89
93
7
79
46
52
53
6
4
34
47
77
60
65
32
16
97
12
3
19
63
33
88
23
87
40
41
45
10
9
38
27
71
25
54
11
5
51
17
80
81
62
68
61
76
22
37
14
42
43
15
31
8
21
50
2
67
13

> <PUBCHEM_MMFF94_PARTIAL_CHARGES>
39
1 -0.36
10 0.05
11 0.09
12 -0.15
13 0.08
14 0.09
15 -0.15
16 0.54
17 -0.15
18 -0.15
19 -0.05
2 -0.57
20 -0.15
21 -0.15
22 -0.15
23 0.54
24 -0.3
25 0.14
26 0.3
27 0.3
28 0.28
3 -0.57
31 0.15
32 0.37
33 0.15
34 0.15
35 0.15
36 0.15
37 0.15
38 0.15
39 0.15
4 -0.73
40 0.15
41 0.27
5 -0.66
6 0.3
7 -0.71
8 -0.14
9 0.44

> <PUBCHEM_EFFECTIVE_ROTOR_COUNT>
8

> <PUBCHEM_PHARMACOPHORE_FEATURES>
9
1 1 acceptor
1 2 acceptor
1 3 acceptor
1 4 donor
1 6 donor
1 7 acceptor
5 6 7 19 24 25 rings
6 10 11 13 15 17 18 rings
6 8 12 14 20 21 22 rings

> <PUBCHEM_HEAVY_ATOM_COUNT>
28

> <PUBCHEM_ATOM_DEF_STEREO_COUNT>
0

> <PUBCHEM_ATOM_UDEF_STEREO_COUNT>
0

> <PUBCHEM_BOND_DEF_STEREO_COUNT>
0

> <PUBCHEM_BOND_UDEF_STEREO_COUNT>
0

> <PUBCHEM_ISOTOPIC_ATOM_COUNT>
0

> <PUBCHEM_COMPONENT_COUNT>
1

> <PUBCHEM_CACTVS_TAUTO_COUNT>
9

> <PUBCHEM_CONFORMER_ID>
0712A78F00000001

> <PUBCHEM_MMFF94_ENERGY>
87.1122

> <PUBCHEM_FEATURE_SELFOVERLAP>
45.673

> <PUBCHEM_SHAPE_FINGERPRINT>
117089 54 18197506129818730638
11963148 33 18338793549844332831
13402501 40 18412261722742195298
13533116 47 18412826901683020105
13551218 46 18341894108662747239
13782708 43 18060136583302199965
13911852 28 18341891866315532225
14216079 64 18411980278578861163
14347332 77 18342455924645114865
14617045 38 18340775934800787485
14866123 147 17910677566404315929
14910302 57 18335127717783800357
15183329 4 18412830213556486145
15475509 35 18202557389352164104
15799311 1 18340225049589946193
16067689 302 18338803441987491059
17134984 74 18408890663731716486
17492 89 18267023848048707206
17857418 61 18343581849799015092
1979834 28 17060060307343887070
19958102 18 18261103080796155565
20403669 9 18343587338951855316
20567600 247 18342454846064634376
21279426 13 18335130961185475565
21682296 61 18410575094144667723
2215653 11 18338513153330953621
23522609 53 18125472845380386553
23559900 14 18337943481168164777
23569914 152 17691372271958128213
23569943 247 18341611482836171323
24771750 20 17102013522011453845
3004659 81 18187080651016200576
345986 75 17418098689227059472
34797466 226 16878228661963031045
3729539 64 18412544310616537347
397830 11 10159691452399225525
439807 62 18408604734330587717
4435113 14 17969801837282716755
46194498 28 17822008735646197108
463206 1 18200588223692349830
5104073 3 17775002371111415976
59682541 52 18411411826350418639

> <PUBCHEM_SHAPE_MULTIPOLES>
538.69
17.56
3.93
1.14
11.9
1.79
-0.1
11.48
-2.04
-4.82
-0.21
-0.48
-0.18
-0.16

> <PUBCHEM_SHAPE_SELFOVERLAP>
1161.843

> <PUBCHEM_SHAPE_VOLUME>
298

> <PUBCHEM_COORDINATE_TYPE>
2
5
10

$$$$
90354017
  -OEChem-05102415143D

 44 46  0     0  0  0  0  0  0999 V2000
   -2.1392   -2.1439   -1.9485 F   0  0  0  0  0  0  0  0  0  0  0  0
   -3.9793   -3.0737   -1.2238 F   0  0  0  0  0  0  0  0  0  0  0  0
   -2.5531   -2.1620    0.1973 F   0  0  0  0  0  0  0  0  0  0  0  0
    4.4952    1.8650   -0.2214 O   0  0  0  0  0  0  0  0  0  0  0  0
   -3.7735   -0.7965   -1.1724 O   0  0  0  0  0  0  0  0  0  0  0  0
   -0.3275    2.7552   -1.5296 O   0  0  0  0  0  0  0  0  0  0  0  0
   -1.4799    1.2438   -0.2014 N   0  0  0  0  0  0  0  0  0  0  0  0
    6.2015   -2.3270    0.3536 N   0  0  0  0  0  0  0  0  0  0  0  0
    6.5189   -1.5543    1.4065 N   0  0  0  0  0  0  0  0  0  0  0  0
    3.3305   -0.2075    0.1335 C   0  0  0  0  0  0  0  0  0  0  0  0
   -2.7983    1.7894   -0.4314 C   0  0  0  0  0  0  0  0  0  0  0  0
    0.9346    1.0914   -0.4632 C   0  0  0  0  0  0  0  0  0  0  0  0
   -3.8532    1.0566    0.3459 C   0  0  0  0  0  0  0  0  0  0  0  0
    3.3345    1.1497   -0.1892 C   0  0  0  0  0  0  0  0  0  0  0  0
    2.1365    1.7990   -0.4875 C   0  0  0  0  0  0  0  0  0  0  0  0
    2.1286   -0.9152    0.1575 C   0  0  0  0  0  0  0  0  0  0  0  0
    4.5538   -0.8961    0.4461 C   0  0  0  0  0  0  0  0  0  0  0  0
    0.9307   -0.2658   -0.1406 C   0  0  0  0  0  0  0  0  0  0  0  0
   -0.3146    1.7685   -0.7725 C   0  0  0  0  0  0  0  0  0  0  0  0
   -4.2923   -0.2035   -0.0608 C   0  0  0  0  0  0  0  0  0  0  0  0
   -4.3970    1.6504    1.4851 C   0  0  0  0  0  0  0  0  0  0  0  0
   -5.2748   -0.8697    0.6716 C   0  0  0  0  0  0  0  0  0  0  0  0
    5.0337   -1.9743   -0.2566 C   0  0  0  0  0  0  0  0  0  0  0  0
   -5.3794    0.9840    2.2177 C   0  0  0  0  0  0  0  0  0  0  0  0
    5.5088   -0.6821    1.4580 C   0  0  0  0  0  0  0  0  0  0  0  0
   -5.8185   -0.2759    1.8109 C   0  0  0  0  0  0  0  0  0  0  0  0
    4.3942    3.2457   -0.5622 C   0  0  0  0  0  0  0  0  0  0  0  0
   -3.1207   -2.0515   -1.0227 C   0  0  0  0  0  0  0  0  0  0  0  0
   -3.0082    1.7483   -1.5068 H   0  0  0  0  0  0  0  0  0  0  0  0
   -2.7730    2.8528   -0.1649 H   0  0  0  0  0  0  0  0  0  0  0  0
    2.0796    2.8527   -0.7379 H   0  0  0  0  0  0  0  0  0  0  0  0
    2.1029   -1.9742    0.4043 H   0  0  0  0  0  0  0  0  0  0  0  0
   -1.4086    0.4753    0.4578 H   0  0  0  0  0  0  0  0  0  0  0  0
    0.0224   -0.8612   -0.1397 H   0  0  0  0  0  0  0  0  0  0  0  0
   -4.0642    2.6308    1.8153 H   0  0  0  0  0  0  0  0  0  0  0  0
   -5.6328   -1.8479    0.3627 H   0  0  0  0  0  0  0  0  0  0  0  0
    4.6643   -2.5144   -1.1175 H   0  0  0  0  0  0  0  0  0  0  0  0
   -5.8027    1.4462    3.1047 H   0  0  0  0  0  0  0  0  0  0  0  0
    5.5141    0.0714    2.2332 H   0  0  0  0  0  0  0  0  0  0  0  0
   -6.5848   -0.7938    2.3802 H   0  0  0  0  0  0  0  0  0  0  0  0
    6.8296   -3.0809    0.1050 H   0  0  0  0  0  0  0  0  0  0  0  0
    3.8137    3.8051    0.1795 H   0  0  0  0  0  0  0  0  0  0  0  0
    4.0208    3.3857   -1.5825 H   0  0  0  0  0  0  0  0  0  0  0  0
    5.4095    3.6558   -0.5404 H   0  0  0  0  0  0  0  0  0  0  0  0
  1 28  1  0  0  0  0
  2 28  1  0  0  0  0
  3 28  1  0  0  0  0
  4 14  1  0  0  0  0
  4 27  1  0  0  0  0
  5 20  1  0  0  0  0
  5 28  1  0  0  0  0
  6 19  2  0  0  0  0
  7 11  1  0  0  0  0
  7 19  1  0  0  0  0
  7 33  1  0  0  0  0
  8  9  1  0  0  0  0
  8 23  1  0  0  0  0
  8 41  1  0  0  0  0
  9 25  2  0  0  0  0
 10 14  2  0  0  0  0
 10 16  1  0  0  0  0
 10 17  1  0  0  0  0
 11 13  1  0  0  0  0
 11 29  1  0  0  0  0
 11 30  1  0  0  0  0
 12 15  2  0  0  0  0
 12 18  1  0  0  0  0
 12 19  1  0  0  0  0
 13 20  1  0  0  0  0
 13 21  2  0  0  0  0
 14 15  1  0  0  0  0
 15 31  1  0  0  0  0
 16 18  2  0  0  0  0
 16 32  1  0  0  0  0
 17 23  2  0  0  0  0
 17 25  1  0  0  0  0
 18 34  1  0  0  0  0
 20 22  2  0  0  0  0
 21 24  1  0  0  0  0
 21 35  1  0  0  0  0
 22 26  1  0  0  0  0
 22 36  1  0  0  0  0
 23 37  1  0  0  0  0
 24 26  2  0  0  0  0
 24 38  1  0  0  0  0
 25 39  1  0  0  0  0
 26 40  1  0  0  0  0
 27 42  1  0  0  0  0
 27 43  1  0  0  0  0
 27 44  1  0  0  0  0
M  END
> <PUBCHEM_COMPOUND_CID>
90354017

> <PUBCHEM_CONFORMER_RMSD>
1

> <PUBCHEM_CONFORMER_DIVERSEORDER>
12
52
38
48
2
53
33
40
30
59
35
8
43
46
56
50
57
23
60
54
37
10
22
36
58
16
49
11
39
4
32
24
21
34
55
51
42
44
5
9
7
41
29
1
15
17
14
45
47
18
13
27
6
25
3
31
20
28
19
26

> <PUBCHEM_MMFF94_PARTIAL_CHARGES>
39
1 -0.34
10 0.05
11 0.44
12 0.09
13 -0.14
14 0.08
15 -0.15
16 -0.15
17 -0.05
18 -0.15
19 0.54
2 -0.34
20 0.08
21 -0.15
22 -0.15
23 -0.3
24 -0.15
25 0.14
26 -0.15
27 0.28
28 1.3
3 -0.34
31 0.15
32 0.15
33 0.37
34 0.15
35 0.15
36 0.15
37 0.15
38 0.15
39 0.15
4 -0.36
40 0.15
41 0.27
5 -0.36
6 -0.57
7 -0.73
8 0.3
9 -0.71

> <PUBCHEM_EFFECTIVE_ROTOR_COUNT>
8

> <PUBCHEM_PHARMACOPHORE_FEATURES>
9
1 4 acceptor
1 5 acceptor
1 6 acceptor
1 7 donor
1 8 donor
1 9 acceptor
5 8 9 17 23 25 rings
6 10 12 14 15 16 18 rings
6 13 20 21 22 24 26 rings

> <PUBCHEM_HEAVY_ATOM_COUNT>
28

> <PUBCHEM_ATOM_DEF_STEREO_COUNT>
0

> <PUBCHEM_ATOM_UDEF_STEREO_COUNT>
0

> <PUBCHEM_BOND_DEF_STEREO_COUNT>
0

> <PUBCHEM_BOND_UDEF_STEREO_COUNT>
0

> <PUBCHEM_ISOTOPIC_ATOM_COUNT>
0

> <PUBCHEM_COMPONENT_COUNT>
1

> <PUBCHEM_CACTVS_TAUTO_COUNT>
7

> <PUBCHEM_CONFORMER_ID>
0562B1610000000C

> <PUBCHEM_MMFF94_ENERGY>
83.985

> <PUBCHEM_FEATURE_SELFOVERLAP>
45.673

> <PUBCHEM_SHAPE_FINGERPRINT>
10622 236 18125421236931727055
12107183 9 18269561546096651865
12166972 35 16226060980488489174
12422481 6 18272093755613904030
12616971 3 18410012134883841432
12633257 1 18201722846978242941
13690498 29 18041846078641354412
13782708 43 17168141179594507330
14251764 30 16588030112478568771
14790565 3 17469890338952136380
14849402 71 18340206388743821520
14950920 106 17988921171726162585
15183329 4 18411418419062356350
15238133 3 17346606239818301264
15250474 111 18271800271929836782
15537594 2 18262530289274432685
16110190 28 18412831282802947619
16112460 7 18410863174206034536
17780758 139 18273211967845603081
19377110 9 18340763853485610616
19841028 212 18189049966731728395
20028762 73 18410011018346033562
20554085 129 17059499518275928417
20775438 99 11391770230927292569
21033648 29 15123800578207268881
21403212 168 18340492141644400825
229767 44 18343581837199723127
23522609 53 17827113677982443364
312425 54 17988917843321517922
5104073 3 18343020038112135122
513202 73 17968377853802476357
7064713 232 18060422404432321229
8863177 126 17749404684028084000
999808 66 17895767200688273962

> <PUBCHEM_SHAPE_MULTIPOLES>
521.85
16.16
3.19
1.51
5.4
0.3
0.33
-6.17
7.85
1.66
-1.23
-1.78
-0.26
-2.64

> <PUBCHEM_SHAPE_SELFOVERLAP>
1137.01

> <PUBCHEM_SHAPE_VOLUME>
285

> <PUBCHEM_COORDINATE_TYPE>
2
5
10

$$$$
118662964
  -OEChem-05102415143D

 39 41  0     0  0  0  0  0  0999 V2000
   -3.5037   -2.1447   -1.8244 Cl  0  0  0  0  0  0  0  0  0  0  0  0
   -6.4925   -1.2052    2.1439 F   0  0  0  0  0  0  0  0  0  0  0  0
   -1.0930    2.3181    0.0665 O   0  0  0  0  0  0  0  0  0  0  0  0
   -1.5162    0.5290   -1.3465 N   0  0  0  0  0  0  0  0  0  0  0  0
    6.5595   -1.4983   -0.2015 N   0  0  0  0  0  0  0  0  0  0  0  0
    6.6788   -1.0912    1.0736 N   0  0  0  0  0  0  0  0  0  0  0  0
    3.2879   -0.0752    0.0376 C   0  0  0  0  0  0  0  0  0  0  0  0
    2.9869    1.2787    0.1864 C   0  0  0  0  0  0  0  0  0  0  0  0
    0.6685    0.8180   -0.3144 C   0  0  0  0  0  0  0  0  0  0  0  0
    1.6771    1.7253    0.0104 C   0  0  0  0  0  0  0  0  0  0  0  0
    4.6305   -0.5613    0.2127 C   0  0  0  0  0  0  0  0  0  0  0  0
    2.2793   -0.9824   -0.2875 C   0  0  0  0  0  0  0  0  0  0  0  0
    0.9697   -0.5359   -0.4632 C   0  0  0  0  0  0  0  0  0  0  0  0
   -2.8870    0.8738   -1.6480 C   0  0  0  0  0  0  0  0  0  0  0  0
   -0.6973    1.2830   -0.4980 C   0  0  0  0  0  0  0  0  0  0  0  0
   -3.8455    0.2907   -0.6501 C   0  0  0  0  0  0  0  0  0  0  0  0
    4.0414    2.2807    0.5332 C   0  0  0  0  0  0  0  0  0  0  0  0
    5.3516   -1.2050   -0.7631 C   0  0  0  0  0  0  0  0  0  0  0  0
    5.4972   -0.5196    1.3211 C   0  0  0  0  0  0  0  0  0  0  0  0
   -4.1801   -1.0635   -0.6616 C   0  0  0  0  0  0  0  0  0  0  0  0
   -4.4050    1.1395    0.3051 C   0  0  0  0  0  0  0  0  0  0  0  0
   -5.0745   -1.5687    0.2821 C   0  0  0  0  0  0  0  0  0  0  0  0
   -5.2994    0.6342    1.2486 C   0  0  0  0  0  0  0  0  0  0  0  0
   -5.6342   -0.7200    1.2372 C   0  0  0  0  0  0  0  0  0  0  0  0
    1.4457    2.7819    0.1241 H   0  0  0  0  0  0  0  0  0  0  0  0
    2.4898   -2.0439   -0.3971 H   0  0  0  0  0  0  0  0  0  0  0  0
   -3.1137    0.5272   -2.6622 H   0  0  0  0  0  0  0  0  0  0  0  0
   -2.9735    1.9668   -1.6762 H   0  0  0  0  0  0  0  0  0  0  0  0
    0.2104   -1.2808   -0.6824 H   0  0  0  0  0  0  0  0  0  0  0  0
   -1.1420   -0.2802   -1.8302 H   0  0  0  0  0  0  0  0  0  0  0  0
    4.9189    2.1758   -0.1133 H   0  0  0  0  0  0  0  0  0  0  0  0
    3.6799    3.3063    0.3957 H   0  0  0  0  0  0  0  0  0  0  0  0
    4.3391    2.1789    1.5814 H   0  0  0  0  0  0  0  0  0  0  0  0
    5.1266   -1.4766   -1.7853 H   0  0  0  0  0  0  0  0  0  0  0  0
    5.3212   -0.1020    2.3026 H   0  0  0  0  0  0  0  0  0  0  0  0
   -4.1544    2.1967    0.3298 H   0  0  0  0  0  0  0  0  0  0  0  0
    7.3452   -1.9722   -0.6294 H   0  0  0  0  0  0  0  0  0  0  0  0
   -5.3452   -2.6214    0.2876 H   0  0  0  0  0  0  0  0  0  0  0  0
   -5.7350    1.2945    1.9927 H   0  0  0  0  0  0  0  0  0  0  0  0
  1 20  1  0  0  0  0
  2 24  1  0  0  0  0
  3 15  2  0  0  0  0
  4 14  1  0  0  0  0
  4 15  1  0  0  0  0
  4 30  1  0  0  0  0
  5  6  1  0  0  0  0
  5 18  1  0  0  0  0
  5 37  1  0  0  0  0
  6 19  2  0  0  0  0
  7  8  2  0  0  0  0
  7 11  1  0  0  0  0
  7 12  1  0  0  0  0
  8 10  1  0  0  0  0
  8 17  1  0  0  0  0
  9 10  2  0  0  0  0
  9 13  1  0  0  0  0
  9 15  1  0  0  0  0
 10 25  1  0  0  0  0
 11 18  2  0  0  0  0
 11 19  1  0  0  0  0
 12 13  2  0  0  0  0
 12 26  1  0  0  0  0
 13 29  1  0  0  0  0
 14 16  1  0  0  0  0
 14 27  1  0  0  0  0
 14 28  1  0  0  0  0
 16 20  2  0  0  0  0
 16 21  1  0  0  0  0
 17 31  1  0  0  0  0
 17 32  1  0  0  0  0
 17 33  1  0  0  0  0
 18 34  1  0  0  0  0
 19 35  1  0  0  0  0
 20 22  1  0  0  0  0
 21 23  2  0  0  0  0
 21 36  1  0  0  0  0
 22 24  2  0  0  0  0
 22 38  1  0  0  0  0
 23 24  1  0  0  0  0
 23 39  1  0  0  0  0
M  END
> <PUBCHEM_COMPOUND_CID>
118662964

> <PUBCHEM_CONFORMER_RMSD>
0.8

> <PUBCHEM_CONFORMER_DIVERSEORDER>
2
37
30
3
24
35
19
28
5
34
12
16
7
31
29
27
20
13
11
32
23
36
14
9
21
6
25
17
26
22
18
1
8
15
4
33
10

> <PUBCHEM_MMFF94_PARTIAL_CHARGES>
34
1 -0.18
10 -0.15
11 -0.05
12 -0.15
13 -0.15
14 0.44
15 0.54
16 -0.14
17 0.14
18 -0.3
19 0.14
2 -0.19
20 0.18
21 -0.15
22 -0.15
23 -0.15
24 0.19
25 0.15
26 0.15
29 0.15
3 -0.57
30 0.37
34 0.15
35 0.15
36 0.15
37 0.27
38 0.15
39 0.15
4 -0.73
5 0.3
6 -0.71
7 0.05
8 -0.14
9 0.09

> <PUBCHEM_EFFECTIVE_ROTOR_COUNT>
5

> <PUBCHEM_PHARMACOPHORE_FEATURES>
7
1 3 acceptor
1 4 donor
1 5 donor
1 6 acceptor
5 5 6 11 18 19 rings
6 16 20 21 22 23 24 rings
6 7 8 9 10 12 13 rings

> <PUBCHEM_HEAVY_ATOM_COUNT>
24

> <PUBCHEM_ATOM_DEF_STEREO_COUNT>
0

> <PUBCHEM_ATOM_UDEF_STEREO_COUNT>
0

> <PUBCHEM_BOND_DEF_STEREO_COUNT>
0

> <PUBCHEM_BOND_UDEF_STEREO_COUNT>
0

> <PUBCHEM_ISOTOPIC_ATOM_COUNT>
0

> <PUBCHEM_COMPONENT_COUNT>
1

> <PUBCHEM_CACTVS_TAUTO_COUNT>
20

> <PUBCHEM_CONFORMER_ID>
0712A73400000002

> <PUBCHEM_MMFF94_ENERGY>
57.1052

> <PUBCHEM_FEATURE_SELFOVERLAP>
35.522

> <PUBCHEM_SHAPE_FINGERPRINT>
10554248 39 10807939250144726136
11036077 4 17917992806896175999
11089746 13 14692279634477715881
11545043 162 18113891641721830085
12166972 35 17095530595300047332
12422481 6 17775284945910224022
12596602 18 16343697759551453038
12616971 3 18272930552597462341
12633257 1 18130791196144938631
12778500 126 14907907025103006422
13103583 49 17918278683834101863
13668630 136 15936412229910266154
13673619 4 18113339721618854293
13782708 43 17385997326826902066
14123256 34 18335707122262957962
14251757 5 13912905175431658329
14251764 30 17458628929905110679
14341114 176 18413110580041685869
14849402 71 18129658742250592520
15238133 3 16056604269774437472
15348495 7 17418083364910412338
15537594 2 18335697213246346575
16110190 28 18202564003258687461
17349148 13 17385445401537415228
17780758 139 18202844353418203113
17844677 252 18335417963120782900
1813 80 17822297911557213869
18222031 100 16225761934763738340
18927931 339 17748826294047216567
19958102 18 14057002702295622168
20028762 73 18272080630489746982
20281389 69 12607398897287615814
21150785 3 15357985568560568534
21267235 1 18341051827348629022
21403212 168 18272376331225407123
2303208 19 18040713666983835180
23402539 116 16081367397614442916
23522609 53 18044688380107486004
2767999 5 10879990250806227050
2838139 119 11312051032942978291
312425 54 17418371398244486254
3178227 256 18412265026289327954
351380 3 18259702293838701930
3737641 26 18267868280999808758
4093350 32 16702024227901139184
465052 167 18335421245250620094
5104073 3 17917141822738281322
5924683 9 17417521545097879775
7226269 152 14692571005080520067
7495541 125 18113615682084228356
8863177 126 18114466763628126354
999808 66 18260834777988762898

> <PUBCHEM_SHAPE_MULTIPOLES>
467.69
17.39
2.13
1.43
4.63
0.31
0.21
-7.66
7.71
0.26
-0.32
-2.01
-0.38
-0.07

> <PUBCHEM_SHAPE_SELFOVERLAP>
1014.399

> <PUBCHEM_SHAPE_VOLUME>
258

> <PUBCHEM_COORDINATE_TYPE>
2
5
10

$$$$
118663096
  -OEChem-05102415143D

 48 50  0     1  0  0  0  0  0999 V2000
   -2.4511   -3.0891   -1.7268 O   0  0  0  0  0  0  0  0  0  0  0  0
    4.0241   -1.3855    1.4132 O   0  0  0  0  0  0  0  0  0  0  0  0
   -1.0358   -1.6676    1.6947 O   0  0  0  0  0  0  0  0  0  0  0  0
   -1.6906   -0.8463   -0.3731 N   0  0  0  0  0  0  0  0  0  0  0  0
    6.3475    1.4484   -1.3035 N   0  0  0  0  0  0  0  0  0  0  0  0
    6.6158    1.7250   -0.0159 N   0  0  0  0  0  0  0  0  0  0  0  0
   -3.0709   -1.2490   -0.2870 C   0  0  1  0  0  0  0  0  0  0  0  0
   -3.9973   -0.3596   -1.1183 C   0  0  0  0  0  0  0  0  0  0  0  0
   -4.3320    0.9392   -0.4268 C   0  0  0  0  0  0  0  0  0  0  0  0
   -3.1359   -2.6842   -0.7870 C   0  0  0  0  0  0  0  0  0  0  0  0
   -0.7749   -1.0934    0.6409 C   0  0  0  0  0  0  0  0  0  0  0  0
    0.6039   -0.5910    0.4102 C   0  0  0  0  0  0  0  0  0  0  0  0
    3.1935    0.3510   -0.0264 C   0  0  0  0  0  0  0  0  0  0  0  0
   -5.4479    1.0183    0.4065 C   0  0  0  0  0  0  0  0  0  0  0  0
   -3.5256    2.0606   -0.6210 C   0  0  0  0  0  0  0  0  0  0  0  0
    1.6879   -1.2218    1.0209 C   0  0  0  0  0  0  0  0  0  0  0  0
    2.9826   -0.7509    0.8027 C   0  0  0  0  0  0  0  0  0  0  0  0
    0.8148    0.5109   -0.4189 C   0  0  0  0  0  0  0  0  0  0  0  0
   -4.1281   -3.5904   -0.1042 C   0  0  0  0  0  0  0  0  0  0  0  0
    2.1095    0.9820   -0.6370 C   0  0  0  0  0  0  0  0  0  0  0  0
    4.5200    0.8518   -0.2664 C   0  0  0  0  0  0  0  0  0  0  0  0
   -5.7572    2.2190    1.0458 C   0  0  0  0  0  0  0  0  0  0  0  0
   -3.8349    3.2613    0.0183 C   0  0  0  0  0  0  0  0  0  0  0  0
   -4.9506    3.3404    0.8517 C   0  0  0  0  0  0  0  0  0  0  0  0
    5.1051    0.9236   -1.5071 C   0  0  0  0  0  0  0  0  0  0  0  0
    5.4959    1.3584    0.6127 C   0  0  0  0  0  0  0  0  0  0  0  0
    4.6321   -2.4610    0.7018 C   0  0  0  0  0  0  0  0  0  0  0  0
   -3.3653   -1.2486    0.7696 H   0  0  0  0  0  0  0  0  0  0  0  0
   -3.5581   -0.1498   -2.1031 H   0  0  0  0  0  0  0  0  0  0  0  0
   -4.9368   -0.8864   -1.3336 H   0  0  0  0  0  0  0  0  0  0  0  0
   -1.3761   -0.4613   -1.2579 H   0  0  0  0  0  0  0  0  0  0  0  0
   -6.0824    0.1508    0.5676 H   0  0  0  0  0  0  0  0  0  0  0  0
   -2.6537    2.0122   -1.2678 H   0  0  0  0  0  0  0  0  0  0  0  0
    1.5356   -2.0837    1.6663 H   0  0  0  0  0  0  0  0  0  0  0  0
   -0.0039    1.0480   -0.8887 H   0  0  0  0  0  0  0  0  0  0  0  0
   -4.0822   -4.5883   -0.5491 H   0  0  0  0  0  0  0  0  0  0  0  0
   -3.8816   -3.6685    0.9576 H   0  0  0  0  0  0  0  0  0  0  0  0
   -5.1382   -3.1933   -0.2292 H   0  0  0  0  0  0  0  0  0  0  0  0
    2.2504    1.8489   -1.2785 H   0  0  0  0  0  0  0  0  0  0  0  0
   -6.6256    2.2806    1.6951 H   0  0  0  0  0  0  0  0  0  0  0  0
   -3.2069    4.1344   -0.1327 H   0  0  0  0  0  0  0  0  0  0  0  0
   -5.1913    4.2751    1.3496 H   0  0  0  0  0  0  0  0  0  0  0  0
    4.7641    0.6548   -2.4974 H   0  0  0  0  0  0  0  0  0  0  0  0
    5.4414    1.4778    1.6857 H   0  0  0  0  0  0  0  0  0  0  0  0
    7.0609    1.6432   -1.9949 H   0  0  0  0  0  0  0  0  0  0  0  0
    5.4743   -2.8296    1.2938 H   0  0  0  0  0  0  0  0  0  0  0  0
    5.0087   -2.1279   -0.2701 H   0  0  0  0  0  0  0  0  0  0  0  0
    3.9175   -3.2789    0.5651 H   0  0  0  0  0  0  0  0  0  0  0  0
  1 10  2  0  0  0  0
  2 17  1  0  0  0  0
  2 27  1  0  0  0  0
  3 11  2  0  0  0  0
  4  7  1  0  0  0  0
  4 11  1  0  0  0  0
  4 31  1  0  0  0  0
  5  6  1  0  0  0  0
  5 25  1  0  0  0  0
  5 45  1  0  0  0  0
  6 26  2  0  0  0  0
  7  8  1  0  0  0  0
  7 10  1  0  0  0  0
  7 28  1  0  0  0  0
  8  9  1  0  0  0  0
  8 29  1  0  0  0  0
  8 30  1  0  0  0  0
  9 14  2  0  0  0  0
  9 15  1  0  0  0  0
 10 19  1  0  0  0  0
 11 12  1  0  0  0  0
 12 16  2  0  0  0  0
 12 18  1  0  0  0  0
 13 17  2  0  0  0  0
 13 20  1  0  0  0  0
 13 21  1  0  0  0  0
 14 22  1  0  0  0  0
 14 32  1  0  0  0  0
 15 23  2  0  0  0  0
 15 33  1  0  0  0  0
 16 17  1  0  0  0  0
 16 34  1  0  0  0  0
 18 20  2  0  0  0  0
 18 35  1  0  0  0  0
 19 36  1  0  0  0  0
 19 37  1  0  0  0  0
 19 38  1  0  0  0  0
 20 39  1  0  0  0  0
 21 25  2  0  0  0  0
 21 26  1  0  0  0  0
 22 24  2  0  0  0  0
 22 40  1  0  0  0  0
 23 24  1  0  0  0  0
 23 41  1  0  0  0  0
 24 42  1  0  0  0  0
 25 43  1  0  0  0  0
 26 44  1  0  0  0  0
 27 46  1  0  0  0  0
 27 47  1  0  0  0  0
 27 48  1  0  0  0  0
M  END
> <PUBCHEM_COMPOUND_CID>
118663096

> <PUBCHEM_CONFORMER_RMSD>
0.8

> <PUBCHEM_CONFORMER_DIVERSEORDER>
5
116
67
113
131
136
122
25
100
40
126
127
38
42
104
137
82
28
77
24
17
118
102
134
19
64
61
79
56
107
49
97
124
108
93
18
80
78
4
83
91
58
85
33
111
10
110
60
90
32
63
133
98
43
130
87
114
62
138
72
86
2
50
132
125
8
59
55
106
96
121
101
109
16
89
41
74
44
128
120
51
46
13
69
103
11
76
31
6
26
21
88
14
129
65
36
48
81
84
57
20
35
53
75
34
37
15
27
29
119
73
47
22
139
3
117
9
135
45
66
94
39
7
105
12
71
115
23
30
68
99
123
95
112
92
70
54
52
1

> <PUBCHEM_MMFF94_PARTIAL_CHARGES>
39
1 -0.57
10 0.45
11 0.54
12 0.09
13 0.05
14 -0.15
15 -0.15
16 -0.15
17 0.08
18 -0.15
19 0.06
2 -0.36
20 -0.15
21 -0.05
22 -0.15
23 -0.15
24 -0.15
25 -0.3
26 0.14
27 0.28
3 -0.57
31 0.37
32 0.15
33 0.15
34 0.15
35 0.15
39 0.15
4 -0.73
40 0.15
41 0.15
42 0.15
43 0.15
44 0.15
45 0.27
5 0.3
6 -0.71
7 0.36
8 0.14
9 -0.14

> <PUBCHEM_EFFECTIVE_ROTOR_COUNT>
8

> <PUBCHEM_PHARMACOPHORE_FEATURES>
9
1 1 acceptor
1 2 acceptor
1 3 acceptor
1 4 donor
1 5 donor
1 6 acceptor
5 5 6 21 25 26 rings
6 12 13 16 17 18 20 rings
6 9 14 15 22 23 24 rings

> <PUBCHEM_HEAVY_ATOM_COUNT>
27

> <PUBCHEM_ATOM_DEF_STEREO_COUNT>
0

> <PUBCHEM_ATOM_UDEF_STEREO_COUNT>
1

> <PUBCHEM_BOND_DEF_STEREO_COUNT>
0

> <PUBCHEM_BOND_UDEF_STEREO_COUNT>
0

> <PUBCHEM_ISOTOPIC_ATOM_COUNT>
0

> <PUBCHEM_COMPONENT_COUNT>
1

> <PUBCHEM_CACTVS_TAUTO_COUNT>
36

> <PUBCHEM_CONFORMER_ID>
0712A7B800000005

> <PUBCHEM_MMFF94_ENERGY>
77.3863

> <PUBCHEM_FEATURE_SELFOVERLAP>
45.673

> <PUBCHEM_SHAPE_FINGERPRINT>
10165383 225 17846229847862355275
10411042 1 17908703183598699847
10595046 47 18336259141329685430
10906281 52 17676780863736524396
11049842 53 18055334873779098747
12107183 9 18193548961483848138
12596602 18 17749675104202553945
12616971 3 17822561729801817058
12788726 201 18337382872584395219
13073987 5 18334575762994019322
13690498 29 17773027773034968295
13782708 43 12324240559796014632
14118638 360 18335979856512164531
14251757 5 18202003226912581073
14251764 75 17910681964989195961
14294032 229 18060140938894968671
14713325 29 18340773732211065055
14790565 3 18266460893326071617
15064981 113 18058997381327741711
15081414 286 17822292362506894572
15163728 17 18059021553867945333
15183329 4 18343301431463393860
15484559 13 15660231135562942972
1577012 14 18411980226923663869
16110190 28 18334858269047632909
17818456 19 18268701710781423450
20101258 96 18123474045210088275
20775438 99 8568446192827059385
21033648 29 17274530014417730888
21033650 10 18265636388554069822
21756936 100 18260553341982717131
22393880 68 18201717414065984210
23559900 14 16558472002030253170
23569914 152 16982671018230129140
25147074 1 18187072962940357834
3552219 110 17825117145766010247
3610482 184 18409737265608965685
38570 142 18115042804900139974
44249763 50 18130778010374131496
484985 159 13901908972980294637
5104073 3 18113330916851287762
5283173 99 18272932764859300912
531348 171 18342741818926986534
550186 7 18131070428837634141
6086070 43 18131632297050069144
633830 44 17895187784046822770
6700243 42 17554644998345299103
7808743 9 18411980248113501377

> <PUBCHEM_SHAPE_MULTIPOLES>
523.1
16.1
3.88
1.29
10.84
1.11
0.06
-10.24
0.42
-5.82
0.05
0.34
0.29
-2.87

> <PUBCHEM_SHAPE_SELFOVERLAP>
1126.759

> <PUBCHEM_SHAPE_VOLUME>
288.2

> <PUBCHEM_COORDINATE_TYPE>
2
5
10

$$$$
90376270
  -OEChem-05102415143D

 49 51  0     0  0  0  0  0  0999 V2000
   -2.5519   -1.8654    0.0212 O   0  0  0  0  0  0  0  0  0  0  0  0
    1.1253    2.7580    0.2183 O   0  0  0  0  0  0  0  0  0  0  0  0
    1.6212    0.7104    1.1871 N   0  0  0  0  0  0  0  0  0  0  0  0
   -6.6718   -0.1408   -0.9101 N   0  0  0  0  0  0  0  0  0  0  0  0
   -6.7295   -0.8897    0.2044 N   0  0  0  0  0  0  0  0  0  0  0  0
    3.6549   -1.8193    0.8405 C   0  0  0  0  0  0  0  0  0  0  0  0
    4.1881   -0.7118   -0.0078 C   0  0  0  0  0  0  0  0  0  0  0  0
    3.8866    0.6199    0.2777 C   0  0  0  0  0  0  0  0  0  0  0  0
    3.0169    0.9814    1.4469 C   0  0  0  0  0  0  0  0  0  0  0  0
    2.7336   -2.7697    0.0542 C   0  0  0  0  0  0  0  0  0  0  0  0
    4.7743   -2.6232    1.5273 C   0  0  0  0  0  0  0  0  0  0  0  0
    4.9984   -1.0251   -1.0990 C   0  0  0  0  0  0  0  0  0  0  0  0
    4.3955    1.6384   -0.5282 C   0  0  0  0  0  0  0  0  0  0  0  0
    5.5074   -0.0066   -1.9050 C   0  0  0  0  0  0  0  0  0  0  0  0
    5.2058    1.3251   -1.6197 C   0  0  0  0  0  0  0  0  0  0  0  0
   -0.6295    1.2147    0.4113 C   0  0  0  0  0  0  0  0  0  0  0  0
    0.7543    1.6279    0.5819 C   0  0  0  0  0  0  0  0  0  0  0  0
   -3.2850    0.4229    0.0875 C   0  0  0  0  0  0  0  0  0  0  0  0
   -2.2721   -0.5352    0.1334 C   0  0  0  0  0  0  0  0  0  0  0  0
   -0.9444   -0.1392    0.2952 C   0  0  0  0  0  0  0  0  0  0  0  0
   -1.6424    2.1728    0.3653 C   0  0  0  0  0  0  0  0  0  0  0  0
   -2.9700    1.7768    0.2032 C   0  0  0  0  0  0  0  0  0  0  0  0
   -4.6605    0.0364   -0.0770 C   0  0  0  0  0  0  0  0  0  0  0  0
   -5.4543    0.4358   -1.1243 C   0  0  0  0  0  0  0  0  0  0  0  0
   -5.4979   -0.7775    0.7091 C   0  0  0  0  0  0  0  0  0  0  0  0
   -2.5529   -2.4170   -1.2934 C   0  0  0  0  0  0  0  0  0  0  0  0
    3.0398   -1.4507    1.6623 H   0  0  0  0  0  0  0  0  0  0  0  0
    3.3224    0.4649    2.3628 H   0  0  0  0  0  0  0  0  0  0  0  0
    3.1190    2.0501    1.6741 H   0  0  0  0  0  0  0  0  0  0  0  0
    2.2840   -3.5109    0.7240 H   0  0  0  0  0  0  0  0  0  0  0  0
    1.9205   -2.2153   -0.4271 H   0  0  0  0  0  0  0  0  0  0  0  0
    3.2754   -3.3147   -0.7261 H   0  0  0  0  0  0  0  0  0  0  0  0
    4.3497   -3.3712    2.2060 H   0  0  0  0  0  0  0  0  0  0  0  0
    5.4208   -1.9637    2.1169 H   0  0  0  0  0  0  0  0  0  0  0  0
    5.4039   -3.1526    0.8042 H   0  0  0  0  0  0  0  0  0  0  0  0
    5.2474   -2.0542   -1.3422 H   0  0  0  0  0  0  0  0  0  0  0  0
    4.1694    2.6809   -0.3208 H   0  0  0  0  0  0  0  0  0  0  0  0
    1.2603   -0.1725    1.5312 H   0  0  0  0  0  0  0  0  0  0  0  0
    6.1382   -0.2502   -2.7549 H   0  0  0  0  0  0  0  0  0  0  0  0
    5.6017    2.1180   -2.2476 H   0  0  0  0  0  0  0  0  0  0  0  0
   -0.1792   -0.9103    0.2974 H   0  0  0  0  0  0  0  0  0  0  0  0
   -1.4187    3.2323    0.4596 H   0  0  0  0  0  0  0  0  0  0  0  0
   -3.7443    2.5402    0.1758 H   0  0  0  0  0  0  0  0  0  0  0  0
   -5.2733    1.0622   -1.9870 H   0  0  0  0  0  0  0  0  0  0  0  0
   -5.2662   -1.2949    1.6295 H   0  0  0  0  0  0  0  0  0  0  0  0
   -7.5039   -0.0664   -1.4819 H   0  0  0  0  0  0  0  0  0  0  0  0
   -2.8450   -3.4683   -1.2227 H   0  0  0  0  0  0  0  0  0  0  0  0
   -1.5503   -2.3621   -1.7295 H   0  0  0  0  0  0  0  0  0  0  0  0
   -3.2694   -1.8987   -1.9380 H   0  0  0  0  0  0  0  0  0  0  0  0
  1 19  1  0  0  0  0
  1 26  1  0  0  0  0
  2 17  2  0  0  0  0
  3  9  1  0  0  0  0
  3 17  1  0  0  0  0
  3 38  1  0  0  0  0
  4  5  1  0  0  0  0
  4 24  1  0  0  0  0
  4 46  1  0  0  0  0
  5 25  2  0  0  0  0
  6  7  1  0  0  0  0
  6 10  1  0  0  0  0
  6 11  1  0  0  0  0
  6 27  1  0  0  0  0
  7  8  1  0  0  0  0
  7 12  2  0  0  0  0
  8  9  1  0  0  0  0
  8 13  2  0  0  0  0
  9 28  1  0  0  0  0
  9 29  1  0  0  0  0
 10 30  1  0  0  0  0
 10 31  1  0  0  0  0
 10 32  1  0  0  0  0
 11 33  1  0  0  0  0
 11 34  1  0  0  0  0
 11 35  1  0  0  0  0
 12 14  1  0  0  0  0
 12 36  1  0  0  0  0
 13 15  1  0  0  0  0
 13 37  1  0  0  0  0
 14 15  2  0  0  0  0
 14 39  1  0  0  0  0
 15 40  1  0  0  0  0
 16 17  1  0  0  0  0
 16 20  2  0  0  0  0
 16 21  1  0  0  0  0
 18 19  2  0  0  0  0
 18 22  1  0  0  0  0
 18 23  1  0  0  0  0
 19 20  1  0  0  0  0
 20 41  1  0  0  0  0
 21 22  2  0  0  0  0
 21 42  1  0  0  0  0
 22 43  1  0  0  0  0
 23 24  2  0  0  0  0
 23 25  1  0  0  0  0
 24 44  1  0  0  0  0
 25 45  1  0  0  0  0
 26 47  1  0  0  0  0
 26 48  1  0  0  0  0
 26 49  1  0  0  0  0
M  END
> <PUBCHEM_COMPOUND_CID>
90376270

> <PUBCHEM_CONFORMER_RMSD>
0.8

> <PUBCHEM_CONFORMER_DIVERSEORDER>
1
63
59
13
58
30
28
48
19
71
21
60
45
4
8
3
64
9
66
32
55
44
67
49
52
42
37
24
54
33
14
18
20
10
65
15
72
51
56
34
61
43
57
6
17
38
16
70
26
12
27
11
5
23
53
68
62
69
36
2
35
39
47
25
46
7
22
50
40
29
31
41

> <PUBCHEM_MMFF94_PARTIAL_CHARGES>
35
1 -0.36
12 -0.15
13 -0.15
14 -0.15
15 -0.15
16 0.09
17 0.54
18 0.05
19 0.08
2 -0.57
20 -0.15
21 -0.15
22 -0.15
23 -0.05
24 -0.3
25 0.14
26 0.28
3 -0.73
36 0.15
37 0.15
38 0.37
39 0.15
4 0.3
40 0.15
41 0.15
42 0.15
43 0.15
44 0.15
45 0.15
46 0.27
5 -0.71
6 0.14
7 -0.14
8 -0.14
9 0.44

> <PUBCHEM_EFFECTIVE_ROTOR_COUNT>
7

> <PUBCHEM_PHARMACOPHORE_FEATURES>
9
1 1 acceptor
1 2 acceptor
1 3 donor
1 4 donor
1 5 acceptor
3 6 10 11 hydrophobe
5 4 5 23 24 25 rings
6 16 18 19 20 21 22 rings
6 7 8 12 13 14 15 rings

> <PUBCHEM_HEAVY_ATOM_COUNT>
26

> <PUBCHEM_ATOM_DEF_STEREO_COUNT>
0

> <PUBCHEM_ATOM_UDEF_STEREO_COUNT>
0

> <PUBCHEM_BOND_DEF_STEREO_COUNT>
0

> <PUBCHEM_BOND_UDEF_STEREO_COUNT>
0

> <PUBCHEM_ISOTOPIC_ATOM_COUNT>
0

> <PUBCHEM_COMPONENT_COUNT>
1

> <PUBCHEM_CACTVS_TAUTO_COUNT>
7

> <PUBCHEM_CONFORMER_ID>
0563084E00000001

> <PUBCHEM_MMFF94_ENERGY>
77.6865

> <PUBCHEM_FEATURE_SELFOVERLAP>
45.671

> <PUBCHEM_SHAPE_FINGERPRINT>
12788726 201 18201443536438216185
13150687 139 18267883821309538980
13533116 47 18407758127383067658
13617811 41 18261388979368238973
13782708 43 16128367221172670685
14347332 77 18340482279761510145
14617045 38 18341619230107242607
14840074 17 18202286913797189687
14931854 50 18335713702342811958
15183329 4 18411983533879592237
15250474 111 18337669715826640066
15348495 7 12391504304611259965
15475509 35 15554172459313063422
15537594 2 18412266167970049550
17349148 13 17418096529159182705
17492 89 18122624955708316626
17857418 61 18342448223246143619
1813 80 17822004324371905261
18335252 98 17677061234421350235
19319366 153 18259980470666372530
21150785 3 16805325535214798001
2215653 11 18273213118891485485
22393880 68 18411708664905318596
23522609 53 18126033561802945609
23559900 14 18199746015160755409
239999 70 18131635612786017300
24771750 20 17172385521573731749
2871803 45 18412549808232444800
3004659 81 18260545581251340658
3472631 163 15357992208569225062
34797466 226 16515693242671457733
4098825 35 17313098610482815054
439807 62 18261674779139224075
463206 1 18271239533800079022
465052 167 17632582660314736588
5104073 3 18201152161646557625
960060 61 18408324389167802148

> <PUBCHEM_SHAPE_MULTIPOLES>
508.39
15.98
2.75
1.37
11.12
0.76
-0.28
3.96
-4.55
-2.06
0.34
-1.67
0.17
-1.36

> <PUBCHEM_SHAPE_SELFOVERLAP>
1096.641

> <PUBCHEM_SHAPE_VOLUME>
280.9

> <PUBCHEM_COORDINATE_TYPE>
2
5
10

$$$$
90353967
  -OEChem-05102415143D

 43 45  0     1  0  0  0  0  0999 V2000
    3.8226   -0.1087   -2.4754 Cl  0  0  0  0  0  0  0  0  0  0  0  0
   -2.3345    1.9419    0.0379 O   0  0  0  0  0  0  0  0  0  0  0  0
    1.0237   -2.8385   -0.8083 O   0  0  0  0  0  0  0  0  0  0  0  0
    1.7792   -0.9578    0.3182 N   0  0  0  0  0  0  0  0  0  0  0  0
   -6.6028    0.4915    0.7402 N   0  0  0  0  0  0  0  0  0  0  0  0
   -6.5451    1.2166   -0.3900 N   0  0  0  0  0  0  0  0  0  0  0  0
    3.1820   -1.3053    0.3031 C   0  0  1  0  0  0  0  0  0  0  0  0
    4.0580   -0.0728    0.2397 C   0  0  0  0  0  0  0  0  0  0  0  0
    3.5146   -2.2002    1.4953 C   0  0  0  0  0  0  0  0  0  0  0  0
   -0.5858   -1.2570   -0.1707 C   0  0  0  0  0  0  0  0  0  0  0  0
    0.7778   -1.7569   -0.2455 C   0  0  0  0  0  0  0  0  0  0  0  0
   -3.2021   -0.2988   -0.0306 C   0  0  0  0  0  0  0  0  0  0  0  0
   -2.1312    0.5950   -0.0307 C   0  0  0  0  0  0  0  0  0  0  0  0
   -0.8230    0.1158   -0.1007 C   0  0  0  0  0  0  0  0  0  0  0  0
    4.3926    0.5261   -0.9750 C   0  0  0  0  0  0  0  0  0  0  0  0
    4.5344    0.4634    1.4362 C   0  0  0  0  0  0  0  0  0  0  0  0
   -1.6568   -2.1507   -0.1704 C   0  0  0  0  0  0  0  0  0  0  0  0
   -2.9650   -1.6716   -0.1001 C   0  0  0  0  0  0  0  0  0  0  0  0
   -4.5586    0.1738    0.0392 C   0  0  0  0  0  0  0  0  0  0  0  0
    5.2035    1.6610   -0.9932 C   0  0  0  0  0  0  0  0  0  0  0  0
    5.3451    1.5985    1.4179 C   0  0  0  0  0  0  0  0  0  0  0  0
    5.6798    2.1971    0.2033 C   0  0  0  0  0  0  0  0  0  0  0  0
   -5.4390   -0.1525    1.0418 C   0  0  0  0  0  0  0  0  0  0  0  0
   -5.2940    1.0186   -0.8136 C   0  0  0  0  0  0  0  0  0  0  0  0
   -1.1754    2.7717    0.0314 C   0  0  0  0  0  0  0  0  0  0  0  0
    3.3729   -1.9292   -0.5778 H   0  0  0  0  0  0  0  0  0  0  0  0
    1.5229   -0.1311    0.8483 H   0  0  0  0  0  0  0  0  0  0  0  0
    2.9994   -3.1635    1.3952 H   0  0  0  0  0  0  0  0  0  0  0  0
    4.5875   -2.4122    1.5613 H   0  0  0  0  0  0  0  0  0  0  0  0
    3.1750   -1.7795    2.4484 H   0  0  0  0  0  0  0  0  0  0  0  0
    0.0291    0.7819   -0.1470 H   0  0  0  0  0  0  0  0  0  0  0  0
    4.2846    0.0493    2.4069 H   0  0  0  0  0  0  0  0  0  0  0  0
   -1.4926   -3.2240   -0.2210 H   0  0  0  0  0  0  0  0  0  0  0  0
   -3.7851   -2.3860   -0.1050 H   0  0  0  0  0  0  0  0  0  0  0  0
    5.4732    2.1396   -1.9312 H   0  0  0  0  0  0  0  0  0  0  0  0
    5.7119    2.0198    2.3494 H   0  0  0  0  0  0  0  0  0  0  0  0
    6.3101    3.0815    0.1894 H   0  0  0  0  0  0  0  0  0  0  0  0
   -5.3509   -0.7688    1.9260 H   0  0  0  0  0  0  0  0  0  0  0  0
   -4.9743    1.4997   -1.7274 H   0  0  0  0  0  0  0  0  0  0  0  0
   -7.4718    0.4807    1.2595 H   0  0  0  0  0  0  0  0  0  0  0  0
   -1.5239    3.8076    0.1030 H   0  0  0  0  0  0  0  0  0  0  0  0
   -0.6244    2.6916   -0.9120 H   0  0  0  0  0  0  0  0  0  0  0  0
   -0.5419    2.5936    0.9073 H   0  0  0  0  0  0  0  0  0  0  0  0
  1 15  1  0  0  0  0
  2 13  1  0  0  0  0
  2 25  1  0  0  0  0
  3 11  2  0  0  0  0
  4  7  1  0  0  0  0
  4 11  1  0  0  0  0
  4 27  1  0  0  0  0
  5  6  1  0  0  0  0
  5 23  1  0  0  0  0
  5 40  1  0  0  0  0
  6 24  2  0  0  0  0
  7  8  1  0  0  0  0
  7  9  1  0  0  0  0
  7 26  1  0  0  0  0
  8 15  1  0  0  0  0
  8 16  2  0  0  0  0
  9 28  1  0  0  0  0
  9 29  1  0  0  0  0
  9 30  1  0  0  0  0
 10 11  1  0  0  0  0
 10 14  2  0  0  0  0
 10 17  1  0  0  0  0
 12 13  2  0  0  0  0
 12 18  1  0  0  0  0
 12 19  1  0  0  0  0
 13 14  1  0  0  0  0
 14 31  1  0  0  0  0
 15 20  2  0  0  0  0
 16 21  1  0  0  0  0
 16 32  1  0  0  0  0
 17 18  2  0  0  0  0
 17 33  1  0  0  0  0
 18 34  1  0  0  0  0
 19 23  2  0  0  0  0
 19 24  1  0  0  0  0
 20 22  1  0  0  0  0
 20 35  1  0  0  0  0
 21 22  2  0  0  0  0
 21 36  1  0  0  0  0
 22 37  1  0  0  0  0
 23 38  1  0  0  0  0
 24 39  1  0  0  0  0
 25 41  1  0  0  0  0
 25 42  1  0  0  0  0
 25 43  1  0  0  0  0
M  END
> <PUBCHEM_COMPOUND_CID>
90353967

> <PUBCHEM_CONFORMER_RMSD>
0.8

> <PUBCHEM_CONFORMER_DIVERSEORDER>
14
71
60
38
16
11
76
4
77
67
34
61
70
44
28
62
39
33
26
40
32
72
63
75
78
22
58
51
45
3
5
53
29
81
13
25
74
80
36
55
20
21
54
68
7
9
64
31
69
59
30
41
27
52
49
66
18
50
35
56
24
46
79
65
19
57
43
23
47
73
48
1
2
37
42
8
10
17
6
12
15

> <PUBCHEM_MMFF94_PARTIAL_CHARGES>
35
1 -0.18
10 0.09
11 0.54
12 0.05
13 0.08
14 -0.15
15 0.18
16 -0.15
17 -0.15
18 -0.15
19 -0.05
2 -0.36
20 -0.15
21 -0.15
22 -0.15
23 -0.3
24 0.14
25 0.28
27 0.37
3 -0.57
31 0.15
32 0.15
33 0.15
34 0.15
35 0.15
36 0.15
37 0.15
38 0.15
39 0.15
4 -0.73
40 0.27
5 0.3
6 -0.71
7 0.44
8 -0.14

> <PUBCHEM_EFFECTIVE_ROTOR_COUNT>
6

> <PUBCHEM_PHARMACOPHORE_FEATURES>
8
1 2 acceptor
1 3 acceptor
1 4 donor
1 5 donor
1 6 acceptor
5 5 6 19 23 24 rings
6 10 12 13 14 17 18 rings
6 8 15 16 20 21 22 rings

> <PUBCHEM_HEAVY_ATOM_COUNT>
25

> <PUBCHEM_ATOM_DEF_STEREO_COUNT>
0

> <PUBCHEM_ATOM_UDEF_STEREO_COUNT>
1

> <PUBCHEM_BOND_DEF_STEREO_COUNT>
0

> <PUBCHEM_BOND_UDEF_STEREO_COUNT>
0

> <PUBCHEM_ISOTOPIC_ATOM_COUNT>
0

> <PUBCHEM_COMPONENT_COUNT>
1

> <PUBCHEM_CACTVS_TAUTO_COUNT>
7

> <PUBCHEM_CONFORMER_ID>
0562B12F0000000E

> <PUBCHEM_MMFF94_ENERGY>
74.8377

> <PUBCHEM_FEATURE_SELFOVERLAP>
40.597

> <PUBCHEM_SHAPE_FINGERPRINT>
10 15 18041000665520343939
10498660 4 18341898519483409966
10670039 82 18264504905448575908
10906281 52 18341062843586250339
12422481 6 17313383366740739461
12596602 18 17240481424654868120
12616971 3 16877938377765627582
12633257 1 15574994026882475498
13402501 40 18201717396939375984
13533116 47 17531806840303259082
13617811 41 18409158931431823437
14341114 328 17531246196884067986
14528608 73 18059852874420353399
14790565 3 18197501732051326609
14840074 17 18202280303953498701
15183329 4 12391524065877192475
17980427 23 18187644768858095495
19377110 9 17676769889277860547
21792934 111 18263351513297770145
221357 26 17346606253225383776
22149856 69 18265074482921221611
23559900 14 18270417022178194454
3472631 163 18270962461681512948
34797466 226 17418377991261385181
350125 39 18337389340899679006
3680242 22 18334859411419217656
394071 54 18059861704821016544
4340502 62 17022619775585236810
474 4 17530972405973036886
5104073 3 18189055300716379241
53794403 172 18124594438552827416
59682541 52 15698005080773077197
7808743 9 18196930188057769312
8988823 20 13984668074662223878
960060 61 14764634127141959466

> <PUBCHEM_SHAPE_MULTIPOLES>
489.68
15.84
2.66
1.36
8.43
0.22
-0.36
-8.71
1.76
-1.23
0.1
-2.09
0.03
0.01

> <PUBCHEM_SHAPE_SELFOVERLAP>
1054.743

> <PUBCHEM_SHAPE_VOLUME>
271.2

> <PUBCHEM_COORDINATE_TYPE>
2
5
10

$$$$
118663059
  -OEChem-05102415143D

 42 44  0     0  0  0  0  0  0999 V2000
    0.5622   -2.8338    0.2959 O   0  0  0  0  0  0  0  0  0  0  0  0
    6.1284    2.6311    0.9451 O   0  0  0  0  0  0  0  0  0  0  0  0
    4.8324    2.9988   -0.8857 O   0  0  0  0  0  0  0  0  0  0  0  0
    1.1382   -1.1748   -1.2184 N   0  0  0  0  0  0  0  0  0  0  0  0
   -6.8607    1.0038    1.0596 N   0  0  0  0  0  0  0  0  0  0  0  0
   -6.9563    1.4327   -0.2104 N   0  0  0  0  0  0  0  0  0  0  0  0
   -3.6230   -0.1252    0.0456 C   0  0  0  0  0  0  0  0  0  0  0  0
   -2.5450    0.6821   -0.3181 C   0  0  0  0  0  0  0  0  0  0  0  0
   -1.0745   -1.2318   -0.2070 C   0  0  0  0  0  0  0  0  0  0  0  0
   -1.2708    0.1287   -0.4443 C   0  0  0  0  0  0  0  0  0  0  0  0
    2.4821   -1.6407   -1.4747 C   0  0  0  0  0  0  0  0  0  0  0  0
   -3.4266   -1.4857    0.2831 C   0  0  0  0  0  0  0  0  0  0  0  0
   -4.9467    0.4208    0.1835 C   0  0  0  0  0  0  0  0  0  0  0  0
   -2.1525   -2.0390    0.1566 C   0  0  0  0  0  0  0  0  0  0  0  0
    3.4775   -1.0325   -0.5296 C   0  0  0  0  0  0  0  0  0  0  0  0
    0.2538   -1.8093   -0.3385 C   0  0  0  0  0  0  0  0  0  0  0  0
   -2.7166    2.1444   -0.5797 C   0  0  0  0  0  0  0  0  0  0  0  0
    3.8816    0.2919   -0.6988 C   0  0  0  0  0  0  0  0  0  0  0  0
    3.9975   -1.7917    0.5187 C   0  0  0  0  0  0  0  0  0  0  0  0
   -5.6765    0.3908    1.3467 C   0  0  0  0  0  0  0  0  0  0  0  0
   -5.7841    1.0737   -0.7407 C   0  0  0  0  0  0  0  0  0  0  0  0
    4.8057    0.8569    0.1801 C   0  0  0  0  0  0  0  0  0  0  0  0
    4.9214   -1.2266    1.3979 C   0  0  0  0  0  0  0  0  0  0  0  0
    5.3257    0.0976    1.2285 C   0  0  0  0  0  0  0  0  0  0  0  0
    5.2265    2.2378    0.0042 C   0  0  0  0  0  0  0  0  0  0  0  0
   -0.4426    0.7847   -0.6976 H   0  0  0  0  0  0  0  0  0  0  0  0
    2.7355   -1.3749   -2.5074 H   0  0  0  0  0  0  0  0  0  0  0  0
    2.5011   -2.7349   -1.4130 H   0  0  0  0  0  0  0  0  0  0  0  0
   -4.2535   -2.1347    0.5625 H   0  0  0  0  0  0  0  0  0  0  0  0
   -2.0217   -3.1023    0.3406 H   0  0  0  0  0  0  0  0  0  0  0  0
    0.8323   -0.3734   -1.7595 H   0  0  0  0  0  0  0  0  0  0  0  0
   -1.7503    2.6589   -0.6345 H   0  0  0  0  0  0  0  0  0  0  0  0
   -3.2766    2.6303    0.2261 H   0  0  0  0  0  0  0  0  0  0  0  0
   -3.2258    2.3071   -1.5347 H   0  0  0  0  0  0  0  0  0  0  0  0
    3.4708    0.8768   -1.5185 H   0  0  0  0  0  0  0  0  0  0  0  0
    3.6905   -2.8241    0.6636 H   0  0  0  0  0  0  0  0  0  0  0  0
   -5.4708    0.0008    2.3341 H   0  0  0  0  0  0  0  0  0  0  0  0
   -5.5964    1.3016   -1.7805 H   0  0  0  0  0  0  0  0  0  0  0  0
    5.3254   -1.8181    2.2144 H   0  0  0  0  0  0  0  0  0  0  0  0
    6.0468    0.4975    1.9358 H   0  0  0  0  0  0  0  0  0  0  0  0
   -7.6445    1.1633    1.6802 H   0  0  0  0  0  0  0  0  0  0  0  0
    6.4056    3.5635    0.8177 H   0  0  0  0  0  0  0  0  0  0  0  0
  1 16  2  0  0  0  0
  2 25  1  0  0  0  0
  2 42  1  0  0  0  0
  3 25  2  0  0  0  0
  4 11  1  0  0  0  0
  4 16  1  0  0  0  0
  4 31  1  0  0  0  0
  5  6  1  0  0  0  0
  5 20  1  0  0  0  0
  5 41  1  0  0  0  0
  6 21  2  0  0  0  0
  7  8  2  0  0  0  0
  7 12  1  0  0  0  0
  7 13  1  0  0  0  0
  8 10  1  0  0  0  0
  8 17  1  0  0  0  0
  9 10  2  0  0  0  0
  9 14  1  0  0  0  0
  9 16  1  0  0  0  0
 10 26  1  0  0  0  0
 11 15  1  0  0  0  0
 11 27  1  0  0  0  0
 11 28  1  0  0  0  0
 12 14  2  0  0  0  0
 12 29  1  0  0  0  0
 13 20  2  0  0  0  0
 13 21  1  0  0  0  0
 14 30  1  0  0  0  0
 15 18  2  0  0  0  0
 15 19  1  0  0  0  0
 17 32  1  0  0  0  0
 17 33  1  0  0  0  0
 17 34  1  0  0  0  0
 18 22  1  0  0  0  0
 18 35  1  0  0  0  0
 19 23  2  0  0  0  0
 19 36  1  0  0  0  0
 20 37  1  0  0  0  0
 21 38  1  0  0  0  0
 22 24  2  0  0  0  0
 22 25  1  0  0  0  0
 23 24  1  0  0  0  0
 23 39  1  0  0  0  0
 24 40  1  0  0  0  0
M  END
> <PUBCHEM_COMPOUND_CID>
118663059

> <PUBCHEM_CONFORMER_RMSD>
0.8

> <PUBCHEM_CONFORMER_DIVERSEORDER>
1
20
9
47
45
28
36
55
3
6
58
7
51
49
17
2
24
39
27
30
42
12
52
44
15
33
16
14
31
50
37
48
56
4
46
8
34
26
40
22
35
29
32
18
43
53
5
10
57
38
19
54
41
23
11
13
21
25

> <PUBCHEM_MMFF94_PARTIAL_CHARGES>
37
1 -0.57
10 -0.15
11 0.44
12 -0.15
13 -0.05
14 -0.15
15 -0.14
16 0.54
17 0.14
18 -0.15
19 -0.15
2 -0.65
20 -0.3
21 0.14
22 0.09
23 -0.15
24 -0.15
25 0.63
26 0.15
29 0.15
3 -0.57
30 0.15
31 0.37
35 0.15
36 0.15
37 0.15
38 0.15
39 0.15
4 -0.73
40 0.15
41 0.27
42 0.5
5 0.3
6 -0.71
7 0.05
8 -0.14
9 0.09

> <PUBCHEM_EFFECTIVE_ROTOR_COUNT>
6

> <PUBCHEM_PHARMACOPHORE_FEATURES>
10
1 1 acceptor
1 2 acceptor
1 3 acceptor
1 4 donor
1 5 donor
1 6 acceptor
3 2 3 25 anion
5 5 6 13 20 21 rings
6 15 18 19 22 23 24 rings
6 7 8 9 10 12 14 rings

> <PUBCHEM_HEAVY_ATOM_COUNT>
25

> <PUBCHEM_ATOM_DEF_STEREO_COUNT>
0

> <PUBCHEM_ATOM_UDEF_STEREO_COUNT>
0

> <PUBCHEM_BOND_DEF_STEREO_COUNT>
0

> <PUBCHEM_BOND_UDEF_STEREO_COUNT>
0

> <PUBCHEM_ISOTOPIC_ATOM_COUNT>
0

> <PUBCHEM_COMPONENT_COUNT>
1

> <PUBCHEM_CACTVS_TAUTO_COUNT>
20

> <PUBCHEM_CONFORMER_ID>
0712A79300000001

> <PUBCHEM_MMFF94_ENERGY>
65.7326

> <PUBCHEM_FEATURE_SELFOVERLAP>
50.805

> <PUBCHEM_SHAPE_FINGERPRINT>
10 15 18187089464093692225
10906281 52 17703242745425474443
12107183 9 18335970975363802810
125118 31 18270403785358214297
12596602 18 17167583803822924848
13533116 47 17676768656711904618
13685833 64 11025801998187498950
13914758 101 13840263672748710855
13955234 65 18191871128051746251
14216079 64 8286199440540979185
14251764 38 18341051813852154688
14251764 75 18194124238521221532
14528608 73 15769771338637050127
15183329 4 17489588969936308945
15348495 7 18040158435023387195
15475509 35 16298936551781306938
15475509 8 11312064249037616875
15519825 34 16516538861898093067
155225 6 18265058122874891332
15840311 113 17985283889337132897
16760501 71 18408888464001962205
17810953 82 18410013260735141220
17980427 23 18336545022953184439
20715895 44 18411135805533819820
21150785 3 16200138882194912975
21315764 268 18260824848076810572
21344244 78 16081090393983407604
21641784 216 15482398560227939387
21792934 111 17895196542244508605
21859007 373 17314496046843753117
22849339 104 14189279500716234797
23559900 14 18270414788779798398
270888 7 18272087266556376040
2748736 6 18344143679156596369
2838139 119 18340480080474043239
312425 54 17312818303568534282
345986 75 13262392254772708630
3472631 163 18342458157611228302
34797466 226 17775293729297672727
3680242 22 18334580113758596552
397830 11 18187940511942951587
4340502 62 17458634363440167459
465052 167 11530483320247316402
5104073 3 18187086182348925043
54039377 194 10809610495176792888
5718773 13 8862400708106067828
59682541 52 15841285774421318524
7808743 9 18125436665002015682
960060 61 10303807692467346010

> <PUBCHEM_SHAPE_MULTIPOLES>
481.94
17.92
2.83
1.16
7.76
0.74
-0.1
11.87
-5.03
-3.29
0.19
-0.56
-0.07
0.14

> <PUBCHEM_SHAPE_SELFOVERLAP>
1054.967

> <PUBCHEM_SHAPE_VOLUME>
262.4

> <PUBCHEM_COORDINATE_TYPE>
2
5
10

$$$$
118663054
  -OEChem-05102415143D

 44 46  0     0  0  0  0  0  0999 V2000
    3.3844    2.1779   -0.0298 O   0  0  0  0  0  0  0  0  0  0  0  0
   -1.0006    0.4605   -1.9229 O   0  0  0  0  0  0  0  0  0  0  0  0
   -6.6508    1.9851    1.1032 O   0  0  0  0  0  0  0  0  0  0  0  0
   -1.1842   -1.6206   -0.9170 N   0  0  0  0  0  0  0  0  0  0  0  0
    7.0524   -0.6781    0.6382 N   0  0  0  0  0  0  0  0  0  0  0  0
    6.9276    0.4676    1.3296 N   0  0  0  0  0  0  0  0  0  0  0  0
   -5.6574    2.1877   -0.9536 N   0  0  0  0  0  0  0  0  0  0  0  0
    3.5715   -0.2185   -0.0366 C   0  0  0  0  0  0  0  0  0  0  0  0
    0.9063   -0.3771   -0.8458 C   0  0  0  0  0  0  0  0  0  0  0  0
   -2.5619   -1.8621   -1.2810 C   0  0  0  0  0  0  0  0  0  0  0  0
   -3.5159   -1.3482   -0.2417 C   0  0  0  0  0  0  0  0  0  0  0  0
    2.8305    0.9476   -0.2290 C   0  0  0  0  0  0  0  0  0  0  0  0
    1.4979    0.8682   -0.6336 C   0  0  0  0  0  0  0  0  0  0  0  0
    4.9461   -0.1595    0.3820 C   0  0  0  0  0  0  0  0  0  0  0  0
    2.9800   -1.4638   -0.2490 C   0  0  0  0  0  0  0  0  0  0  0  0
    1.6474   -1.5432   -0.6534 C   0  0  0  0  0  0  0  0  0  0  0  0
   -0.4835   -0.4602   -1.2658 C   0  0  0  0  0  0  0  0  0  0  0  0
   -4.2315   -0.1730   -0.4713 C   0  0  0  0  0  0  0  0  0  0  0  0
   -3.6876   -2.0471    0.9533 C   0  0  0  0  0  0  0  0  0  0  0  0
   -5.1185    0.3034    0.4940 C   0  0  0  0  0  0  0  0  0  0  0  0
    5.8944   -1.0966    0.0514 C   0  0  0  0  0  0  0  0  0  0  0  0
   -4.5749   -1.5707    1.9186 C   0  0  0  0  0  0  0  0  0  0  0  0
    5.6388    0.7795    1.1696 C   0  0  0  0  0  0  0  0  0  0  0  0
   -5.2901   -0.3955    1.6890 C   0  0  0  0  0  0  0  0  0  0  0  0
   -5.8650    1.5284    0.2545 C   0  0  0  0  0  0  0  0  0  0  0  0
    2.5448    3.3084   -0.2529 C   0  0  0  0  0  0  0  0  0  0  0  0
   -2.6880   -2.9441   -1.4016 H   0  0  0  0  0  0  0  0  0  0  0  0
   -2.7606   -1.4071   -2.2582 H   0  0  0  0  0  0  0  0  0  0  0  0
    0.8731    1.7406   -0.7914 H   0  0  0  0  0  0  0  0  0  0  0  0
    3.5229   -2.3940   -0.1014 H   0  0  0  0  0  0  0  0  0  0  0  0
    1.2340   -2.5312   -0.8335 H   0  0  0  0  0  0  0  0  0  0  0  0
   -0.7467   -2.3189   -0.3251 H   0  0  0  0  0  0  0  0  0  0  0  0
   -4.0573    0.3295   -1.4152 H   0  0  0  0  0  0  0  0  0  0  0  0
   -3.1358   -2.9640    1.1433 H   0  0  0  0  0  0  0  0  0  0  0  0
    5.8694   -2.0019   -0.5393 H   0  0  0  0  0  0  0  0  0  0  0  0
   -4.7084   -2.1151    2.8488 H   0  0  0  0  0  0  0  0  0  0  0  0
    5.2714    1.6746    1.6511 H   0  0  0  0  0  0  0  0  0  0  0  0
   -5.9754   -0.0448    2.4562 H   0  0  0  0  0  0  0  0  0  0  0  0
    7.9613   -1.1228    0.6064 H   0  0  0  0  0  0  0  0  0  0  0  0
    1.7025    3.3325    0.4470 H   0  0  0  0  0  0  0  0  0  0  0  0
    2.2260    3.3772   -1.2986 H   0  0  0  0  0  0  0  0  0  0  0  0
    3.1478    4.1997   -0.0492 H   0  0  0  0  0  0  0  0  0  0  0  0
   -5.0372    1.8919   -1.6959 H   0  0  0  0  0  0  0  0  0  0  0  0
   -6.1619    3.0486   -1.1410 H   0  0  0  0  0  0  0  0  0  0  0  0
  1 12  1  0  0  0  0
  1 26  1  0  0  0  0
  2 17  2  0  0  0  0
  3 25  2  0  0  0  0
  4 10  1  0  0  0  0
  4 17  1  0  0  0  0
  4 32  1  0  0  0  0
  5  6  1  0  0  0  0
  5 21  1  0  0  0  0
  5 39  1  0  0  0  0
  6 23  2  0  0  0  0
  7 25  1  0  0  0  0
  7 43  1  0  0  0  0
  7 44  1  0  0  0  0
  8 12  2  0  0  0  0
  8 14  1  0  0  0  0
  8 15  1  0  0  0  0
  9 13  2  0  0  0  0
  9 16  1  0  0  0  0
  9 17  1  0  0  0  0
 10 11  1  0  0  0  0
 10 27  1  0  0  0  0
 10 28  1  0  0  0  0
 11 18  2  0  0  0  0
 11 19  1  0  0  0  0
 12 13  1  0  0  0  0
 13 29  1  0  0  0  0
 14 21  2  0  0  0  0
 14 23  1  0  0  0  0
 15 16  2  0  0  0  0
 15 30  1  0  0  0  0
 16 31  1  0  0  0  0
 18 20  1  0  0  0  0
 18 33  1  0  0  0  0
 19 22  2  0  0  0  0
 19 34  1  0  0  0  0
 20 24  2  0  0  0  0
 20 25  1  0  0  0  0
 21 35  1  0  0  0  0
 22 24  1  0  0  0  0
 22 36  1  0  0  0  0
 23 37  1  0  0  0  0
 24 38  1  0  0  0  0
 26 40  1  0  0  0  0
 26 41  1  0  0  0  0
 26 42  1  0  0  0  0
M  END
> <PUBCHEM_COMPOUND_CID>
118663054

> <PUBCHEM_CONFORMER_RMSD>
0.8

> <PUBCHEM_CONFORMER_DIVERSEORDER>
31
116
128
83
72
7
130
133
141
11
126
136
60
21
79
125
54
50
124
42
90
82
32
65
117
30
122
13
77
34
139
80
108
98
114
28
3
75
119
118
93
92
112
73
69
36
22
129
88
86
127
81
70
44
121
142
2
102
23
113
76
19
109
97
64
134
15
132
110
29
39
38
74
135
61
123
45
71
51
101
87
25
96
106
6
1
40
111
107
53
140
48
94
84
78
57
43
99
120
115
62
12
56
52
138
100
91
66
16
18
20
68
49
10
41
85
104
33
105
35
137
58
63
55
103
95
131
26
59
4
24
89
27
67
14
47
8
37
5
9
46
17

> <PUBCHEM_MMFF94_PARTIAL_CHARGES>
39
1 -0.36
10 0.44
11 -0.14
12 0.08
13 -0.15
14 -0.05
15 -0.15
16 -0.15
17 0.54
18 -0.15
19 -0.15
2 -0.57
20 0.09
21 -0.3
22 -0.15
23 0.14
24 -0.15
25 0.54
26 0.28
29 0.15
3 -0.57
30 0.15
31 0.15
32 0.37
33 0.15
34 0.15
35 0.15
36 0.15
37 0.15
38 0.15
39 0.27
4 -0.73
43 0.37
44 0.37
5 0.3
6 -0.71
7 -0.8
8 0.05
9 0.09

> <PUBCHEM_EFFECTIVE_ROTOR_COUNT>
7

> <PUBCHEM_PHARMACOPHORE_FEATURES>
10
1 1 acceptor
1 2 acceptor
1 3 acceptor
1 4 donor
1 5 donor
1 6 acceptor
1 7 donor
5 5 6 14 21 23 rings
6 11 18 19 20 22 24 rings
6 8 9 12 13 15 16 rings

> <PUBCHEM_HEAVY_ATOM_COUNT>
26

> <PUBCHEM_ATOM_DEF_STEREO_COUNT>
0

> <PUBCHEM_ATOM_UDEF_STEREO_COUNT>
0

> <PUBCHEM_BOND_DEF_STEREO_COUNT>
0

> <PUBCHEM_BOND_UDEF_STEREO_COUNT>
0

> <PUBCHEM_ISOTOPIC_ATOM_COUNT>
0

> <PUBCHEM_COMPONENT_COUNT>
1

> <PUBCHEM_CACTVS_TAUTO_COUNT>
18

> <PUBCHEM_CONFORMER_ID>
0712A78E0000001F

> <PUBCHEM_MMFF94_ENERGY>
78.6776

> <PUBCHEM_FEATURE_SELFOVERLAP>
50.748

> <PUBCHEM_SHAPE_FINGERPRINT>
10 15 18410853270259447376
10319926 262 18187656816341515243
105312 117 15339126766389862055
10554248 39 15626227910136085788
10928967 22 13840544137849074577
11089746 13 16272201998864678594
11370993 144 18334577928153103359
11545043 162 17168132473010015494
12107183 9 18411981355745324883
12403259 118 18271245027395339335
12422481 6 18341608252566629028
12895837 130 14476691797546841435
13103583 49 17530969098674262555
13668630 136 12251902577249255136
14767858 380 8430312459489688442
14790565 3 17688035627319312172
14849402 71 18191026914281581492
14931854 50 9583518681874093305
14950920 106 17968097589932443387
15003188 100 10519693502220802050
15142383 8 18335134272431031484
15183329 4 13406792242340861272
15188451 53 17677056875446763323
15238133 3 18410581699403351588
15348495 7 18188213207504991771
15461852 350 16702014322582448445
15537594 2 15430029968047435707
16110190 28 18187086182359032597
16989378 47 12758243041250504632
16990350 14 17906735061342047800
17780758 139 17675926508530670203
18643901 69 9583509924857373753
20281389 69 18060418031818283250
20511986 3 17775273967752729842
21054139 6 8646771105952233328
21130935 74 18342450466000625122
21150785 3 9151166572121387794
21307412 95 9582650055436537281
21315763 191 17022627484972612567
21403212 168 17458345192451150459
21521721 280 17385726941835323688
22288116 15 12391505416897058325
23522609 53 16516555229554188950
23559900 14 17273444770539444238
24771293 8 18127960010134459264
2838139 119 15410897361722716658
3117164 225 18335984258794984042
312425 54 17749106707602516139
351380 3 13839984430368906411
3737641 26 16443614688993081674
497634 4 8935010269918723819
5104073 3 18187645872363723792
6201460 15 13050505481239683097
7226269 152 17704073997031637411
7495541 125 17023179466365257982
999808 66 12396305837719890905

> <PUBCHEM_SHAPE_MULTIPOLES>
497.54
18.51
2.51
1.46
3.31
1.55
0.18
3.93
9.1
-1.32
-0.13
-1.23
-0.28
0.58

> <PUBCHEM_SHAPE_SELFOVERLAP>
1086.594

> <PUBCHEM_SHAPE_VOLUME>
270.4

> <PUBCHEM_COORDINATE_TYPE>
2
5
10

$$$$
118662946
  -OEChem-05102415143D

 44 46  0     0  0  0  0  0  0999 V2000
   -6.3574   -1.7422    1.6522 F   0  0  0  0  0  0  0  0  0  0  0  0
    4.0624    2.0089    0.2101 O   0  0  0  0  0  0  0  0  0  0  0  0
   -5.8540    0.9602    1.5146 O   0  0  0  0  0  0  0  0  0  0  0  0
   -0.9550    1.9222   -0.4901 O   0  0  0  0  0  0  0  0  0  0  0  0
   -1.2586   -0.0515   -1.6690 N   0  0  0  0  0  0  0  0  0  0  0  0
    6.6634   -1.8978    0.3832 N   0  0  0  0  0  0  0  0  0  0  0  0
    6.9470   -0.8381    1.1597 N   0  0  0  0  0  0  0  0  0  0  0  0
    3.4777   -0.3150    0.0234 C   0  0  0  0  0  0  0  0  0  0  0  0
    0.8603    0.4405   -0.5782 C   0  0  0  0  0  0  0  0  0  0  0  0
   -2.6194    0.2073   -2.0815 C   0  0  0  0  0  0  0  0  0  0  0  0
    3.1363    1.0366   -0.0282 C   0  0  0  0  0  0  0  0  0  0  0  0
   -3.6165   -0.3108   -1.0856 C   0  0  0  0  0  0  0  0  0  0  0  0
    1.8276    1.4142   -0.3290 C   0  0  0  0  0  0  0  0  0  0  0  0
    4.8204   -0.7265    0.3333 C   0  0  0  0  0  0  0  0  0  0  0  0
    2.5104   -1.2887   -0.2261 C   0  0  0  0  0  0  0  0  0  0  0  0
    1.2018   -0.9110   -0.5267 C   0  0  0  0  0  0  0  0  0  0  0  0
   -0.5045    0.8340   -0.8900 C   0  0  0  0  0  0  0  0  0  0  0  0
   -4.2809    0.5758   -0.2379 C   0  0  0  0  0  0  0  0  0  0  0  0
   -3.8783   -1.6788   -1.0079 C   0  0  0  0  0  0  0  0  0  0  0  0
   -5.2068    0.0942    0.6875 C   0  0  0  0  0  0  0  0  0  0  0  0
    5.4023   -1.8787   -0.1361 C   0  0  0  0  0  0  0  0  0  0  0  0
    5.8173   -0.1262    1.1255 C   0  0  0  0  0  0  0  0  0  0  0  0
   -4.8040   -2.1602   -0.0823 C   0  0  0  0  0  0  0  0  0  0  0  0
   -5.4684   -1.2738    0.7654 C   0  0  0  0  0  0  0  0  0  0  0  0
    3.6148    3.3604    0.1335 C   0  0  0  0  0  0  0  0  0  0  0  0
   -5.5376    2.3451    1.3800 C   0  0  0  0  0  0  0  0  0  0  0  0
   -2.7714   -0.2814   -3.0507 H   0  0  0  0  0  0  0  0  0  0  0  0
   -2.7472    1.2836   -2.2446 H   0  0  0  0  0  0  0  0  0  0  0  0
    1.5087    2.4490   -0.3890 H   0  0  0  0  0  0  0  0  0  0  0  0
    2.7341   -2.3513   -0.1736 H   0  0  0  0  0  0  0  0  0  0  0  0
    0.4729   -1.7017   -0.6786 H   0  0  0  0  0  0  0  0  0  0  0  0
   -0.8394   -0.9059   -2.0197 H   0  0  0  0  0  0  0  0  0  0  0  0
   -4.0385    1.6284   -0.3391 H   0  0  0  0  0  0  0  0  0  0  0  0
   -3.3666   -2.3789   -1.6631 H   0  0  0  0  0  0  0  0  0  0  0  0
    5.0586   -2.6735   -0.7838 H   0  0  0  0  0  0  0  0  0  0  0  0
    5.7803    0.7913    1.6954 H   0  0  0  0  0  0  0  0  0  0  0  0
   -5.0079   -3.2252   -0.0214 H   0  0  0  0  0  0  0  0  0  0  0  0
    7.3807   -2.5993    0.2480 H   0  0  0  0  0  0  0  0  0  0  0  0
    4.4791    3.9964    0.3526 H   0  0  0  0  0  0  0  0  0  0  0  0
    3.2815    3.6207   -0.8769 H   0  0  0  0  0  0  0  0  0  0  0  0
    2.8605    3.5820    0.8964 H   0  0  0  0  0  0  0  0  0  0  0  0
   -6.1435    2.8871    2.1136 H   0  0  0  0  0  0  0  0  0  0  0  0
   -5.8155    2.7277    0.3920 H   0  0  0  0  0  0  0  0  0  0  0  0
   -4.4885    2.5442    1.6237 H   0  0  0  0  0  0  0  0  0  0  0  0
  1 24  1  0  0  0  0
  2 11  1  0  0  0  0
  2 25  1  0  0  0  0
  3 20  1  0  0  0  0
  3 26  1  0  0  0  0
  4 17  2  0  0  0  0
  5 10  1  0  0  0  0
  5 17  1  0  0  0  0
  5 32  1  0  0  0  0
  6  7  1  0  0  0  0
  6 21  1  0  0  0  0
  6 38  1  0  0  0  0
  7 22  2  0  0  0  0
  8 11  2  0  0  0  0
  8 14  1  0  0  0  0
  8 15  1  0  0  0  0
  9 13  2  0  0  0  0
  9 16  1  0  0  0  0
  9 17  1  0  0  0  0
 10 12  1  0  0  0  0
 10 27  1  0  0  0  0
 10 28  1  0  0  0  0
 11 13  1  0  0  0  0
 12 18  2  0  0  0  0
 12 19  1  0  0  0  0
 13 29  1  0  0  0  0
 14 21  2  0  0  0  0
 14 22  1  0  0  0  0
 15 16  2  0  0  0  0
 15 30  1  0  0  0  0
 16 31  1  0  0  0  0
 18 20  1  0  0  0  0
 18 33  1  0  0  0  0
 19 23  2  0  0  0  0
 19 34  1  0  0  0  0
 20 24  2  0  0  0  0
 21 35  1  0  0  0  0
 22 36  1  0  0  0  0
 23 24  1  0  0  0  0
 23 37  1  0  0  0  0
 25 39  1  0  0  0  0
 25 40  1  0  0  0  0
 25 41  1  0  0  0  0
 26 42  1  0  0  0  0
 26 43  1  0  0  0  0
 26 44  1  0  0  0  0
M  END
> <PUBCHEM_COMPOUND_CID>
118662946

> <PUBCHEM_CONFORMER_RMSD>
0.8

> <PUBCHEM_CONFORMER_DIVERSEORDER>
10
33
22
64
53
55
14
27
68
56
49
9
35
30
75
66
13
31
65
16
78
17
48
54
32
60
59
6
4
39
45
42
74
71
76
2
12
5
38
61
44
20
25
3
70
79
77
41
1
80
23
24
28
36
63
69
73
19
67
72
50
21
62
7
57
34
8
52
46
29
18
51
26
58
15
37
40
11
47
43

> <PUBCHEM_MMFF94_PARTIAL_CHARGES>
36
1 -0.19
10 0.44
11 0.08
12 -0.14
13 -0.15
14 -0.05
15 -0.15
16 -0.15
17 0.54
18 -0.15
19 -0.15
2 -0.36
20 0.08
21 -0.3
22 0.14
23 -0.15
24 0.19
25 0.28
26 0.28
29 0.15
3 -0.36
30 0.15
31 0.15
32 0.37
33 0.15
34 0.15
35 0.15
36 0.15
37 0.15
38 0.27
4 -0.57
5 -0.73
6 0.3
7 -0.71
8 0.05
9 0.09

> <PUBCHEM_EFFECTIVE_ROTOR_COUNT>
7

> <PUBCHEM_PHARMACOPHORE_FEATURES>
9
1 2 acceptor
1 3 acceptor
1 4 acceptor
1 5 donor
1 6 donor
1 7 acceptor
5 6 7 14 21 22 rings
6 12 18 19 20 23 24 rings
6 8 9 11 13 15 16 rings

> <PUBCHEM_HEAVY_ATOM_COUNT>
26

> <PUBCHEM_ATOM_DEF_STEREO_COUNT>
0

> <PUBCHEM_ATOM_UDEF_STEREO_COUNT>
0

> <PUBCHEM_BOND_DEF_STEREO_COUNT>
0

> <PUBCHEM_BOND_UDEF_STEREO_COUNT>
0

> <PUBCHEM_ISOTOPIC_ATOM_COUNT>
0

> <PUBCHEM_COMPONENT_COUNT>
1

> <PUBCHEM_CACTVS_TAUTO_COUNT>
9

> <PUBCHEM_CONFORMER_ID>
0712A7220000000A

> <PUBCHEM_MMFF94_ENERGY>
80.5737

> <PUBCHEM_FEATURE_SELFOVERLAP>
45.673

> <PUBCHEM_SHAPE_FINGERPRINT>
105312 117 14405187274873886893
10693767 8 11747480693897709512
11089746 13 16056585548085918273
11545043 162 17749659723354766372
12107183 9 18270124509246185377
12166972 35 16877947131351738404
12236239 1 17704065196981147190
12422481 6 17917992750428195942
12596602 18 18337957887226733337
12616971 3 18130783490467162028
12895837 130 11455896858630834795
13103583 49 18410860949724081135
13690498 29 11386663957346174377
13782708 43 17458334222466710986
13955234 65 18266450083515970904
14251757 5 12541278696395022657
14849402 71 18339360894155757896
14950920 106 18411417345446716979
15142383 8 17917989434887665584
15183329 4 8070034362933743147
15238133 3 16988846102879784512
15348495 7 18408886265141983841
15461852 350 16128362788550513677
15475509 35 17096347511492130464
15510800 12 16806459174864277379
15880784 105 18334295413725566307
16110190 28 18342739624140149735
17780758 139 18412262827165540139
17844677 252 18335417976126828813
1813 80 17240486940020493933
18222031 100 15791724230704415518
18927931 339 16370441147109748215
20028762 73 18340761624371652022
21049683 271 18187366554663941252
21065198 48 18271246127165378061
21150785 3 14490481868008266574
21267235 1 18411416177906858374
21403212 168 18336270025710223865
2303208 19 17676481752890698068
23522609 53 18044123248241911844
2748736 6 12175615183691882522
2838139 119 11815892357909775483
3178227 256 18409165511600672370
3663271 9 18270962452548161945
3737641 26 18116430341029832690
4093350 32 17203050790247290996
465052 167 18335417959648325966
4938544 92 18337954477038998277
5104073 3 18341047501277682889
636775 8 18191305980446621486
7226269 152 15697997435668298523
7495541 125 18113611288379904084
8863177 126 18040715917583836066
999808 66 18187081720278850006

> <PUBCHEM_SHAPE_MULTIPOLES>
495.24
18.54
2.61
1.39
1.65
1.37
-0.1
-5.9
9.56
0.57
0.41
-1.85
0.01
-0.88

> <PUBCHEM_SHAPE_SELFOVERLAP>
1078.095

> <PUBCHEM_SHAPE_VOLUME>
272

> <PUBCHEM_COORDINATE_TYPE>
2
5
10

$$$$
118662997
  -OEChem-05102415143D

 40 42  0     0  0  0  0  0  0999 V2000
    3.3311    2.0041   -1.5485 F   0  0  0  0  0  0  0  0  0  0  0  0
    4.2221   -2.2889    0.2730 F   0  0  0  0  0  0  0  0  0  0  0  0
    6.3309    1.5415    2.0814 F   0  0  0  0  0  0  0  0  0  0  0  0
   -2.8071    1.9495   -0.2161 O   0  0  0  0  0  0  0  0  0  0  0  0
    1.1778   -2.4084    0.0381 O   0  0  0  0  0  0  0  0  0  0  0  0
    1.4331   -0.5440   -1.3167 N   0  0  0  0  0  0  0  0  0  0  0  0
   -6.9235    0.0295    0.2065 N   0  0  0  0  0  0  0  0  0  0  0  0
   -6.6914    0.8496    1.2456 N   0  0  0  0  0  0  0  0  0  0  0  0
   -3.3685   -0.3522    0.1897 C   0  0  0  0  0  0  0  0  0  0  0  0
   -0.6984   -1.0316   -0.2487 C   0  0  0  0  0  0  0  0  0  0  0  0
    2.8180   -0.7747   -1.6603 C   0  0  0  0  0  0  0  0  0  0  0  0
   -2.4384    0.6399   -0.1212 C   0  0  0  0  0  0  0  0  0  0  0  0
    3.7548   -0.1573   -0.6626 C   0  0  0  0  0  0  0  0  0  0  0  0
   -1.1034    0.3001   -0.3404 C   0  0  0  0  0  0  0  0  0  0  0  0
   -4.7501   -0.0242    0.4178 C   0  0  0  0  0  0  0  0  0  0  0  0
   -2.9634   -1.6839    0.2817 C   0  0  0  0  0  0  0  0  0  0  0  0
   -1.6286   -2.0236    0.0623 C   0  0  0  0  0  0  0  0  0  0  0  0
    0.6929   -1.3864   -0.4790 C   0  0  0  0  0  0  0  0  0  0  0  0
    3.9633    1.2220   -0.6623 C   0  0  0  0  0  0  0  0  0  0  0  0
    4.4164   -0.9627    0.2644 C   0  0  0  0  0  0  0  0  0  0  0  0
   -5.7938   -0.5196   -0.3252 C   0  0  0  0  0  0  0  0  0  0  0  0
   -5.3621    0.8129    1.3699 C   0  0  0  0  0  0  0  0  0  0  0  0
    4.8335    1.7957    0.2647 C   0  0  0  0  0  0  0  0  0  0  0  0
    5.2863   -0.3891    1.1916 C   0  0  0  0  0  0  0  0  0  0  0  0
    5.4948    0.9902    1.1919 C   0  0  0  0  0  0  0  0  0  0  0  0
   -3.2263    2.4117   -1.4978 C   0  0  0  0  0  0  0  0  0  0  0  0
    2.9909   -0.3434   -2.6530 H   0  0  0  0  0  0  0  0  0  0  0  0
    2.9886   -1.8534   -1.7500 H   0  0  0  0  0  0  0  0  0  0  0  0
   -0.4007    1.1024   -0.5482 H   0  0  0  0  0  0  0  0  0  0  0  0
   -3.6711   -2.4728    0.5262 H   0  0  0  0  0  0  0  0  0  0  0  0
   -1.3342   -3.0674    0.1348 H   0  0  0  0  0  0  0  0  0  0  0  0
    0.9878    0.2505   -1.7632 H   0  0  0  0  0  0  0  0  0  0  0  0
   -5.8407   -1.1963   -1.1673 H   0  0  0  0  0  0  0  0  0  0  0  0
   -4.8985    1.3989    2.1511 H   0  0  0  0  0  0  0  0  0  0  0  0
    4.9958    2.8694    0.2649 H   0  0  0  0  0  0  0  0  0  0  0  0
    5.8012   -1.0161    1.9133 H   0  0  0  0  0  0  0  0  0  0  0  0
   -7.8814   -0.1109   -0.0893 H   0  0  0  0  0  0  0  0  0  0  0  0
   -3.5339    3.4565   -1.4007 H   0  0  0  0  0  0  0  0  0  0  0  0
   -2.3982    2.3569   -2.2116 H   0  0  0  0  0  0  0  0  0  0  0  0
   -4.0770    1.8311   -1.8675 H   0  0  0  0  0  0  0  0  0  0  0  0
  1 19  1  0  0  0  0
  2 20  1  0  0  0  0
  3 25  1  0  0  0  0
  4 12  1  0  0  0  0
  4 26  1  0  0  0  0
  5 18  2  0  0  0  0
  6 11  1  0  0  0  0
  6 18  1  0  0  0  0
  6 32  1  0  0  0  0
  7  8  1  0  0  0  0
  7 21  1  0  0  0  0
  7 37  1  0  0  0  0
  8 22  2  0  0  0  0
  9 12  2  0  0  0  0
  9 15  1  0  0  0  0
  9 16  1  0  0  0  0
 10 14  2  0  0  0  0
 10 17  1  0  0  0  0
 10 18  1  0  0  0  0
 11 13  1  0  0  0  0
 11 27  1  0  0  0  0
 11 28  1  0  0  0  0
 12 14  1  0  0  0  0
 13 19  2  0  0  0  0
 13 20  1  0  0  0  0
 14 29  1  0  0  0  0
 15 21  2  0  0  0  0
 15 22  1  0  0  0  0
 16 17  2  0  0  0  0
 16 30  1  0  0  0  0
 17 31  1  0  0  0  0
 19 23  1  0  0  0  0
 20 24  2  0  0  0  0
 21 33  1  0  0  0  0
 22 34  1  0  0  0  0
 23 25  2  0  0  0  0
 23 35  1  0  0  0  0
 24 25  1  0  0  0  0
 24 36  1  0  0  0  0
 26 38  1  0  0  0  0
 26 39  1  0  0  0  0
 26 40  1  0  0  0  0
M  END
> <PUBCHEM_COMPOUND_CID>
118662997

> <PUBCHEM_CONFORMER_RMSD>
0.8

> <PUBCHEM_CONFORMER_DIVERSEORDER>
1
15
29
28
27
7
36
41
16
3
13
39
8
17
35
23
22
26
9
37
12
18
38
20
24
10
5
11
14
6
2
40
19
30
32
4
31
33
25
34
21

> <PUBCHEM_MMFF94_PARTIAL_CHARGES>
35
1 -0.19
10 0.09
11 0.44
12 0.08
13 -0.14
14 -0.15
15 -0.05
16 -0.15
17 -0.15
18 0.54
19 0.19
2 -0.19
20 0.19
21 -0.3
22 0.14
23 -0.15
24 -0.15
25 0.19
26 0.28
29 0.15
3 -0.19
30 0.15
31 0.15
32 0.37
33 0.15
34 0.15
35 0.15
36 0.15
37 0.27
4 -0.36
5 -0.57
6 -0.73
7 0.3
8 -0.71
9 0.05

> <PUBCHEM_EFFECTIVE_ROTOR_COUNT>
6

> <PUBCHEM_PHARMACOPHORE_FEATURES>
8
1 4 acceptor
1 5 acceptor
1 6 donor
1 7 donor
1 8 acceptor
5 7 8 15 21 22 rings
6 13 19 20 23 24 25 rings
6 9 10 12 14 16 17 rings

> <PUBCHEM_HEAVY_ATOM_COUNT>
26

> <PUBCHEM_ATOM_DEF_STEREO_COUNT>
0

> <PUBCHEM_ATOM_UDEF_STEREO_COUNT>
0

> <PUBCHEM_BOND_DEF_STEREO_COUNT>
0

> <PUBCHEM_BOND_UDEF_STEREO_COUNT>
0

> <PUBCHEM_ISOTOPIC_ATOM_COUNT>
0

> <PUBCHEM_COMPONENT_COUNT>
1

> <PUBCHEM_CACTVS_TAUTO_COUNT>
9

> <PUBCHEM_CONFORMER_ID>
0712A75500000001

> <PUBCHEM_MMFF94_ENERGY>
66.9831

> <PUBCHEM_FEATURE_SELFOVERLAP>
40.597

> <PUBCHEM_SHAPE_FINGERPRINT>
10 15 18113337539622370024
11724838 91 18341327885543553878
12166972 35 18340492171113111568
12403259 415 18338798918679066156
12422481 6 18114191791733224077
12596602 18 16298671684525445432
12616971 3 17095522941220224750
12925494 130 17974563598778064093
13150687 139 9511166505204544498
13533116 47 18114184086187640946
13685833 64 13406787835762359152
13782708 43 14563107982709115409
13914758 101 15140954029495454245
14341114 176 18333732399315993306
15238133 3 18268712878545920112
15348495 7 17168435968584700625
15510800 12 13407611327449763616
17349148 13 15068632582098790283
20511986 3 18412252931455895423
21130935 74 18342461417966685683
21150785 3 15267058156130233653
21315764 268 18335416855108481932
21641784 216 13973696000642038195
21792934 111 18114465557670925469
21859007 373 17314213489503388453
221357 26 9079119955676977014
22149856 69 18198370441095861259
2215653 11 8862939459812238769
22849339 104 11743543415050439717
23016692 55 8070033272043789530
23559900 14 18269858478914102766
3472631 163 16988277690076200128
34797466 226 15985114036853432621
3680242 22 18408893909946445961
4340502 62 17530972375782055515
465052 167 13695587750289581674
5104073 3 18116431440725453617
8509985 295 18334577966697123588
86090 222 14635143461707339944
960060 61 9367342635352484058

> <PUBCHEM_SHAPE_MULTIPOLES>
486.56
16.99
2.27
1.37
4.42
0.08
-0.05
5.68
-7.21
-0.9
0.31
-1.11
0.56
0.57

> <PUBCHEM_SHAPE_SELFOVERLAP>
1067.447

> <PUBCHEM_SHAPE_VOLUME>
264

> <PUBCHEM_COORDINATE_TYPE>
2
5
10

$$$$
118662975
  -OEChem-05102415143D

 49 51  0     0  0  0  0  0  0999 V2000
   -0.5253   -0.6491    1.7435 O   0  0  0  0  0  0  0  0  0  0  0  0
   -6.6025   -0.5916   -1.0214 O   0  0  0  0  0  0  0  0  0  0  0  0
   -0.4738    1.6126    1.2349 N   0  0  0  0  0  0  0  0  0  0  0  0
   -5.0208   -1.8186    0.1490 N   0  0  0  0  0  0  0  0  0  0  0  0
    7.5131    0.2992   -1.0285 N   0  0  0  0  0  0  0  0  0  0  0  0
    7.3715   -0.9471   -1.5110 N   0  0  0  0  0  0  0  0  0  0  0  0
    4.0846   -0.0734   -0.0839 C   0  0  0  0  0  0  0  0  0  0  0  0
    3.5850   -0.9538    0.8759 C   0  0  0  0  0  0  0  0  0  0  0  0
    1.4593    0.1934    0.8217 C   0  0  0  0  0  0  0  0  0  0  0  0
   -1.8125    1.9167    1.6868 C   0  0  0  0  0  0  0  0  0  0  0  0
   -2.8252    1.7599    0.5895 C   0  0  0  0  0  0  0  0  0  0  0  0
    2.2724   -0.8203    1.3286 C   0  0  0  0  0  0  0  0  0  0  0  0
    3.2716    0.9406   -0.5907 C   0  0  0  0  0  0  0  0  0  0  0  0
    5.4348   -0.1887   -0.5667 C   0  0  0  0  0  0  0  0  0  0  0  0
    1.9589    1.0738   -0.1381 C   0  0  0  0  0  0  0  0  0  0  0  0
    0.0906    0.3331    1.2932 C   0  0  0  0  0  0  0  0  0  0  0  0
   -3.6698    0.6500    0.5727 C   0  0  0  0  0  0  0  0  0  0  0  0
   -4.6112    0.5051   -0.4465 C   0  0  0  0  0  0  0  0  0  0  0  0
    4.4268   -2.0520    1.4431 C   0  0  0  0  0  0  0  0  0  0  0  0
   -2.9219    2.7251   -0.4130 C   0  0  0  0  0  0  0  0  0  0  0  0
   -4.7080    1.4704   -1.4488 C   0  0  0  0  0  0  0  0  0  0  0  0
   -3.8636    2.5804   -1.4319 C   0  0  0  0  0  0  0  0  0  0  0  0
    6.3822    0.7992   -0.4529 C   0  0  0  0  0  0  0  0  0  0  0  0
    6.0998   -1.2399   -1.2259 C   0  0  0  0  0  0  0  0  0  0  0  0
   -5.4924   -0.6518   -0.4636 C   0  0  0  0  0  0  0  0  0  0  0  0
   -5.7674   -3.0552    0.1940 C   0  0  0  0  0  0  0  0  0  0  0  0
   -5.6564   -3.8180   -1.1099 C   0  0  0  0  0  0  0  0  0  0  0  0
   -1.8136    2.9503    2.0515 H   0  0  0  0  0  0  0  0  0  0  0  0
   -2.0569    1.2768    2.5425 H   0  0  0  0  0  0  0  0  0  0  0  0
    1.8864   -1.5064    2.0791 H   0  0  0  0  0  0  0  0  0  0  0  0
    3.6371    1.6308   -1.3477 H   0  0  0  0  0  0  0  0  0  0  0  0
    1.3512    1.8556   -0.5840 H   0  0  0  0  0  0  0  0  0  0  0  0
    0.0781    2.3990    0.9094 H   0  0  0  0  0  0  0  0  0  0  0  0
   -3.5926   -0.0697    1.3829 H   0  0  0  0  0  0  0  0  0  0  0  0
    4.5641   -2.8507    0.7076 H   0  0  0  0  0  0  0  0  0  0  0  0
    3.9580   -2.5003    2.3266 H   0  0  0  0  0  0  0  0  0  0  0  0
    5.4025   -1.6778    1.7704 H   0  0  0  0  0  0  0  0  0  0  0  0
   -2.2690    3.5940   -0.4105 H   0  0  0  0  0  0  0  0  0  0  0  0
   -5.4316    1.3742   -2.2542 H   0  0  0  0  0  0  0  0  0  0  0  0
   -3.9381    3.3316   -2.2129 H   0  0  0  0  0  0  0  0  0  0  0  0
    6.3617    1.7917   -0.0241 H   0  0  0  0  0  0  0  0  0  0  0  0
    5.7149   -2.2072   -1.5170 H   0  0  0  0  0  0  0  0  0  0  0  0
   -4.0803   -1.8501    0.5274 H   0  0  0  0  0  0  0  0  0  0  0  0
    8.4133    0.7520   -1.1257 H   0  0  0  0  0  0  0  0  0  0  0  0
   -5.3684   -3.6512    1.0206 H   0  0  0  0  0  0  0  0  0  0  0  0
   -6.8167   -2.8256    0.4070 H   0  0  0  0  0  0  0  0  0  0  0  0
   -6.0622   -3.2397   -1.9463 H   0  0  0  0  0  0  0  0  0  0  0  0
   -4.6107   -4.0470   -1.3411 H   0  0  0  0  0  0  0  0  0  0  0  0
   -6.2081   -4.7610   -1.0484 H   0  0  0  0  0  0  0  0  0  0  0  0
  1 16  2  0  0  0  0
  2 25  2  0  0  0  0
  3 10  1  0  0  0  0
  3 16  1  0  0  0  0
  3 33  1  0  0  0  0
  4 25  1  0  0  0  0
  4 26  1  0  0  0  0
  4 43  1  0  0  0  0
  5  6  1  0  0  0  0
  5 23  1  0  0  0  0
  5 44  1  0  0  0  0
  6 24  2  0  0  0  0
  7  8  2  0  0  0  0
  7 13  1  0  0  0  0
  7 14  1  0  0  0  0
  8 12  1  0  0  0  0
  8 19  1  0  0  0  0
  9 12  2  0  0  0  0
  9 15  1  0  0  0  0
  9 16  1  0  0  0  0
 10 11  1  0  0  0  0
 10 28  1  0  0  0  0
 10 29  1  0  0  0  0
 11 17  2  0  0  0  0
 11 20  1  0  0  0  0
 12 30  1  0  0  0  0
 13 15  2  0  0  0  0
 13 31  1  0  0  0  0
 14 23  2  0  0  0  0
 14 24  1  0  0  0  0
 15 32  1  0  0  0  0
 17 18  1  0  0  0  0
 17 34  1  0  0  0  0
 18 21  2  0  0  0  0
 18 25  1  0  0  0  0
 19 35  1  0  0  0  0
 19 36  1  0  0  0  0
 19 37  1  0  0  0  0
 20 22  2  0  0  0  0
 20 38  1  0  0  0  0
 21 22  1  0  0  0  0
 21 39  1  0  0  0  0
 22 40  1  0  0  0  0
 23 41  1  0  0  0  0
 24 42  1  0  0  0  0
 26 27  1  0  0  0  0
 26 45  1  0  0  0  0
 26 46  1  0  0  0  0
 27 47  1  0  0  0  0
 27 48  1  0  0  0  0
 27 49  1  0  0  0  0
M  END
> <PUBCHEM_COMPOUND_CID>
118662975

> <PUBCHEM_CONFORMER_RMSD>
1

> <PUBCHEM_CONFORMER_DIVERSEORDER>
2
24
42
55
62
31
78
3
53
37
27
9
57
38
75
1
65
61
44
51
28
18
46
6
72
66
59
21
69
35
29
64
71
25
19
58
41
5
15
76
47
67
33
54
8
11
50
63
74
48
77
34
20
68
52
14
56
70
39
79
16
60
12
43
40
45
26
17
49
22
73
32
36
13
7
30
10
23
4

> <PUBCHEM_MMFF94_PARTIAL_CHARGES>
38
1 -0.57
10 0.44
11 -0.14
12 -0.15
13 -0.15
14 -0.05
15 -0.15
16 0.54
17 -0.15
18 0.09
19 0.14
2 -0.57
20 -0.15
21 -0.15
22 -0.15
23 -0.3
24 0.14
25 0.54
26 0.3
3 -0.73
30 0.15
31 0.15
32 0.15
33 0.37
34 0.15
38 0.15
39 0.15
4 -0.73
40 0.15
41 0.15
42 0.15
43 0.37
44 0.27
5 0.3
6 -0.71
7 0.05
8 -0.14
9 0.09

> <PUBCHEM_EFFECTIVE_ROTOR_COUNT>
8

> <PUBCHEM_PHARMACOPHORE_FEATURES>
9
1 1 acceptor
1 2 acceptor
1 3 donor
1 4 donor
1 5 donor
1 6 acceptor
5 5 6 14 23 24 rings
6 11 17 18 20 21 22 rings
6 7 8 9 12 13 15 rings

> <PUBCHEM_HEAVY_ATOM_COUNT>
27

> <PUBCHEM_ATOM_DEF_STEREO_COUNT>
0

> <PUBCHEM_ATOM_UDEF_STEREO_COUNT>
0

> <PUBCHEM_BOND_DEF_STEREO_COUNT>
0

> <PUBCHEM_BOND_UDEF_STEREO_COUNT>
0

> <PUBCHEM_ISOTOPIC_ATOM_COUNT>
0

> <PUBCHEM_COMPONENT_COUNT>
1

> <PUBCHEM_CACTVS_TAUTO_COUNT>
40

> <PUBCHEM_CONFORMER_ID>
0712A73F00000002

> <PUBCHEM_MMFF94_ENERGY>
62.8811

> <PUBCHEM_FEATURE_SELFOVERLAP>
45.672

> <PUBCHEM_SHAPE_FINGERPRINT>
10319926 262 10159695841112003337
10554248 39 16298386830300938610
10595046 47 18041556940688606648
11135609 201 10953998353804566935
11315621 246 18410856568778441671
11477941 20 17749384888835482061
117089 54 18049726514743984907
12422481 6 9727633908377632944
12895837 130 17240766117221882429
12988421 55 13190341210913925157
1361 4 18272937085728633598
13668630 136 18131355189537951516
13690498 29 18334289899467521703
13782708 43 17059500621924157166
14251757 5 18336545031691344051
14528608 73 18114184095273012248
14950920 106 12678881464103232901
15183329 4 18260266326450974970
15238133 3 8214133076000484810
15348495 7 9799108752652056492
15461852 350 12829501367105899265
15510800 12 17917991720243141655
17780758 139 11743830361836103357
18643901 69 18411984681073528567
18927931 339 17275098397679127477
20281389 69 12035737513302705652
20505436 4 17751360578503613169
21054139 6 18334296474619658506
21150785 3 18410859854628947852
21196832 93 18339082717096518122
21307412 95 18269260409846389471
22288116 15 18261119586060289054
22393880 68 18334569123048549409
2303208 19 15913038777894669272
23522609 53 13254230683297425026
2838139 119 16588027896460281556
312425 54 11527953339702195924
4169191 19 15430620419293508684
445580 160 18273215309224774815
484985 159 18131355203113976051
484989 97 18271811280389536378
504843 32 14634879672968234209
58083652 198 13758059775748976763
6009941 240 16917078711719530169
7226269 152 11963388548546007549
999808 66 17418098723602478735

> <PUBCHEM_SHAPE_MULTIPOLES>
523.98
20.24
3.11
1.6
13.34
1.9
-0.19
10.01
10.76
-7.2
0.58
0.44
-0.04
-0.57

> <PUBCHEM_SHAPE_SELFOVERLAP>
1130.697

> <PUBCHEM_SHAPE_VOLUME>
289.3

> <PUBCHEM_COORDINATE_TYPE>
2
5
10

$$$$
90354103
  -OEChem-05102415143D

 41 43  0     0  0  0  0  0  0999 V2000
    3.0118    2.0291    0.5099 O   0  0  0  0  0  0  0  0  0  0  0  0
   -1.5785    1.2363   -1.5057 O   0  0  0  0  0  0  0  0  0  0  0  0
   -4.6140    1.5108   -1.0964 O   0  0  0  0  0  0  0  0  0  0  0  0
   -1.9289   -1.0104   -1.0520 N   0  0  0  0  0  0  0  0  0  0  0  0
    6.4874   -0.8904    0.0500 N   0  0  0  0  0  0  0  0  0  0  0  0
    6.3447   -0.5472    1.3416 N   0  0  0  0  0  0  0  0  0  0  0  0
    2.9664   -0.2915   -0.1152 C   0  0  0  0  0  0  0  0  0  0  0  0
    0.2731   -0.0093   -0.7860 C   0  0  0  0  0  0  0  0  0  0  0  0
    2.3354    0.9434    0.0368 C   0  0  0  0  0  0  0  0  0  0  0  0
   -3.3347   -1.0321   -1.3867 C   0  0  0  0  0  0  0  0  0  0  0  0
    0.9888    1.0843   -0.2987 C   0  0  0  0  0  0  0  0  0  0  0  0
    4.3533   -0.4593    0.2261 C   0  0  0  0  0  0  0  0  0  0  0  0
    2.2508   -1.3850   -0.6029 C   0  0  0  0  0  0  0  0  0  0  0  0
   -4.1978   -0.6773   -0.2107 C   0  0  0  0  0  0  0  0  0  0  0  0
    0.9042   -1.2441   -0.9380 C   0  0  0  0  0  0  0  0  0  0  0  0
   -1.1312    0.1369   -1.1341 C   0  0  0  0  0  0  0  0  0  0  0  0
   -4.7981    0.5786   -0.1198 C   0  0  0  0  0  0  0  0  0  0  0  0
   -4.3948   -1.6190    0.7995 C   0  0  0  0  0  0  0  0  0  0  0  0
    5.3243   -0.8538   -0.6616 C   0  0  0  0  0  0  0  0  0  0  0  0
    5.0390   -0.2849    1.4432 C   0  0  0  0  0  0  0  0  0  0  0  0
   -5.5952    0.8929    0.9809 C   0  0  0  0  0  0  0  0  0  0  0  0
   -5.1922   -1.3048    1.9001 C   0  0  0  0  0  0  0  0  0  0  0  0
   -5.7922   -0.0489    1.9909 C   0  0  0  0  0  0  0  0  0  0  0  0
    2.2784    3.2459    0.6289 C   0  0  0  0  0  0  0  0  0  0  0  0
   -3.5743   -2.0456   -1.7295 H   0  0  0  0  0  0  0  0  0  0  0  0
   -3.5090   -0.3670   -2.2393 H   0  0  0  0  0  0  0  0  0  0  0  0
    0.4463    2.0176   -0.1943 H   0  0  0  0  0  0  0  0  0  0  0  0
    2.7236   -2.3562   -0.7309 H   0  0  0  0  0  0  0  0  0  0  0  0
    0.3924   -2.1131   -1.3412 H   0  0  0  0  0  0  0  0  0  0  0  0
   -1.5413   -1.8722   -0.6823 H   0  0  0  0  0  0  0  0  0  0  0  0
   -3.9323   -2.6009    0.7411 H   0  0  0  0  0  0  0  0  0  0  0  0
    5.3009   -1.1063   -1.7128 H   0  0  0  0  0  0  0  0  0  0  0  0
    4.6453    0.0214    2.4023 H   0  0  0  0  0  0  0  0  0  0  0  0
   -6.0685    1.8676    1.0649 H   0  0  0  0  0  0  0  0  0  0  0  0
   -5.3456   -2.0380    2.6866 H   0  0  0  0  0  0  0  0  0  0  0  0
   -6.4127    0.1956    2.8481 H   0  0  0  0  0  0  0  0  0  0  0  0
    7.4111   -1.1393   -0.2811 H   0  0  0  0  0  0  0  0  0  0  0  0
    1.9333    3.6087   -0.3454 H   0  0  0  0  0  0  0  0  0  0  0  0
    1.4658    3.1600    1.3585 H   0  0  0  0  0  0  0  0  0  0  0  0
    2.9708    4.0001    1.0175 H   0  0  0  0  0  0  0  0  0  0  0  0
   -5.1039    2.3175   -0.8616 H   0  0  0  0  0  0  0  0  0  0  0  0
  1  9  1  0  0  0  0
  1 24  1  0  0  0  0
  2 16  2  0  0  0  0
  3 17  1  0  0  0  0
  3 41  1  0  0  0  0
  4 10  1  0  0  0  0
  4 16  1  0  0  0  0
  4 30  1  0  0  0  0
  5  6  1  0  0  0  0
  5 19  1  0  0  0  0
  5 37  1  0  0  0  0
  6 20  2  0  0  0  0
  7  9  2  0  0  0  0
  7 12  1  0  0  0  0
  7 13  1  0  0  0  0
  8 11  2  0  0  0  0
  8 15  1  0  0  0  0
  8 16  1  0  0  0  0
  9 11  1  0  0  0  0
 10 14  1  0  0  0  0
 10 25  1  0  0  0  0
 10 26  1  0  0  0  0
 11 27  1  0  0  0  0
 12 19  2  0  0  0  0
 12 20  1  0  0  0  0
 13 15  2  0  0  0  0
 13 28  1  0  0  0  0
 14 17  1  0  0  0  0
 14 18  2  0  0  0  0
 15 29  1  0  0  0  0
 17 21  2  0  0  0  0
 18 22  1  0  0  0  0
 18 31  1  0  0  0  0
 19 32  1  0  0  0  0
 20 33  1  0  0  0  0
 21 23  1  0  0  0  0
 21 34  1  0  0  0  0
 22 23  2  0  0  0  0
 22 35  1  0  0  0  0
 23 36  1  0  0  0  0
 24 38  1  0  0  0  0
 24 39  1  0  0  0  0
 24 40  1  0  0  0  0
M  END
> <PUBCHEM_COMPOUND_CID>
90354103

> <PUBCHEM_CONFORMER_RMSD>
0.8

> <PUBCHEM_CONFORMER_DIVERSEORDER>
16
44
49
22
45
40
58
5
23
28
47
53
37
38
54
50
15
24
59
26
31
9
20
21
57
34
56
17
19
6
42
39
29
46
2
43
10
48
35
36
11
30
33
7
55
13
12
27
32
25
3
14
1
41
18
51
8
4
52

> <PUBCHEM_MMFF94_PARTIAL_CHARGES>
36
1 -0.36
10 0.44
11 -0.15
12 -0.05
13 -0.15
14 -0.14
15 -0.15
16 0.54
17 0.08
18 -0.15
19 -0.3
2 -0.57
20 0.14
21 -0.15
22 -0.15
23 -0.15
24 0.28
27 0.15
28 0.15
29 0.15
3 -0.53
30 0.37
31 0.15
32 0.15
33 0.15
34 0.15
35 0.15
36 0.15
37 0.27
4 -0.73
41 0.45
5 0.3
6 -0.71
7 0.05
8 0.09
9 0.08

> <PUBCHEM_EFFECTIVE_ROTOR_COUNT>
6

> <PUBCHEM_PHARMACOPHORE_FEATURES>
9
1 1 acceptor
1 2 acceptor
1 3 donor
1 4 donor
1 5 donor
1 6 acceptor
5 5 6 12 19 20 rings
6 14 17 18 21 22 23 rings
6 7 8 9 11 13 15 rings

> <PUBCHEM_HEAVY_ATOM_COUNT>
24

> <PUBCHEM_ATOM_DEF_STEREO_COUNT>
0

> <PUBCHEM_ATOM_UDEF_STEREO_COUNT>
0

> <PUBCHEM_BOND_DEF_STEREO_COUNT>
0

> <PUBCHEM_BOND_UDEF_STEREO_COUNT>
0

> <PUBCHEM_ISOTOPIC_ATOM_COUNT>
0

> <PUBCHEM_COMPONENT_COUNT>
1

> <PUBCHEM_CACTVS_TAUTO_COUNT>
21

> <PUBCHEM_CONFORMER_ID>
0562B1B700000010

> <PUBCHEM_MMFF94_ENERGY>
69.0391

> <PUBCHEM_FEATURE_SELFOVERLAP>
45.672

> <PUBCHEM_SHAPE_FINGERPRINT>
10 15 18412821391735975240
10319926 262 18186515514713513529
105312 117 13902192590950902637
10906281 52 18129946801606501846
11045977 3 18261108599639239381
11089746 13 15554439695766357282
11370993 144 18340495461348054813
11405975 8 18271243931914915007
11545043 162 17894627063318071045
11796584 16 16878490233881878906
12035758 1 18410846686290834650
12236239 1 16415474943785301774
12422481 6 17917990568511449776
12507557 5 18202001027852070721
12616971 3 18202004373457475637
12633257 1 18343018925773900167
13288520 33 15430038756083409223
13583140 156 18335133168756116999
13590594 115 18342739594197490720
13668630 136 13912331187612200267
13782708 43 17313377899453320258
13968360 50 9367352522742447488
14251758 9 17989207044759420100
14251764 30 17168145654354323857
14341114 176 18409451405460400964
14576447 43 12179841723204561743
14739800 52 16627979914160129240
14767858 380 11530487718336168130
14849402 71 18198061572343307480
14950920 106 18337683013556682609
14955137 171 18343586222756379980
15021287 119 18271801349908371805
15081414 286 18131075892188833278
15142383 8 18336825303702275484
15188451 53 18042129911782359811
15238133 3 17203619206443528824
15348495 7 18337392746244047947
15461852 350 15195277664323018989
15475509 8 17774742904401184772
15527383 91 18409732867399079717
17093844 174 17749100089543202749
17780758 139 17676207962153733645
17844677 252 17748830726073872637
18785283 64 18264767834724970364
20567600 247 15936401239399965122
20739085 24 18337961189429446892
21054139 6 11674883307530716912
21150785 3 13551482445260800462
21521721 280 18187087295657479648
21792961 116 18264483997901096214
22393880 68 13045932521351160151
22950370 63 16950285104616972559
23402539 116 13551470337215042255
23522609 53 16517120343997151644
23559900 14 16732982080537436405
23569943 247 17630608899800208494
24771293 8 17845075437962971976
249057 25 17418087780437511909
2838139 119 14117516532375508851
3178227 256 18408045117741494666
33382 64 16950558844948660890
351380 3 14851889175146541019
3737641 26 17531804636805759530
465052 167 17894349969603836022
5104073 3 18270959179804337419
6328613 192 15554439734853664722
7226269 152 16917352523899792379
7495541 125 17894630366295602020
8863177 126 17968382367348848626

> <PUBCHEM_SHAPE_MULTIPOLES>
461.36
16.29
2
1.58
0.85
1.57
0.42
-2.78
8.17
0.71
0.07
-1.65
-0.2
0.69

> <PUBCHEM_SHAPE_SELFOVERLAP>
1007.949

> <PUBCHEM_SHAPE_VOLUME>
251

> <PUBCHEM_COORDINATE_TYPE>
2
5
10

$$$$
77108486
  -OEChem-05102415143D

 41 43  0     0  0  0  0  0  0999 V2000
   -2.5789    1.9513   -0.3089 O   0  0  0  0  0  0  0  0  0  0  0  0
    1.4999   -2.3182   -0.0428 O   0  0  0  0  0  0  0  0  0  0  0  0
    6.2326   -0.8338    2.0399 O   0  0  0  0  0  0  0  0  0  0  0  0
    1.7216   -0.4450   -1.3915 N   0  0  0  0  0  0  0  0  0  0  0  0
   -6.6540   -0.2789    0.3791 N   0  0  0  0  0  0  0  0  0  0  0  0
   -6.4462    0.9564    0.8659 N   0  0  0  0  0  0  0  0  0  0  0  0
   -3.0915   -0.3633    0.0880 C   0  0  0  0  0  0  0  0  0  0  0  0
   -0.4046   -0.9824   -0.3370 C   0  0  0  0  0  0  0  0  0  0  0  0
   -2.1819    0.6499   -0.2152 C   0  0  0  0  0  0  0  0  0  0  0  0
    3.1131   -0.6442   -1.7278 C   0  0  0  0  0  0  0  0  0  0  0  0
   -0.8384    0.3402   -0.4276 C   0  0  0  0  0  0  0  0  0  0  0  0
   -4.4813   -0.0665    0.3090 C   0  0  0  0  0  0  0  0  0  0  0  0
   -2.6576   -1.6859    0.1790 C   0  0  0  0  0  0  0  0  0  0  0  0
   -1.3144   -1.9956   -0.0337 C   0  0  0  0  0  0  0  0  0  0  0  0
    4.0299    0.0321   -0.7498 C   0  0  0  0  0  0  0  0  0  0  0  0
    0.9955   -1.3057   -0.5602 C   0  0  0  0  0  0  0  0  0  0  0  0
    4.7144   -0.7238    0.2018 C   0  0  0  0  0  0  0  0  0  0  0  0
   -5.5094   -0.9338    0.0308 C   0  0  0  0  0  0  0  0  0  0  0  0
    4.1965    1.4164   -0.7923 C   0  0  0  0  0  0  0  0  0  0  0  0
   -5.1171    1.0806    0.8205 C   0  0  0  0  0  0  0  0  0  0  0  0
    5.5657   -0.0957    1.1109 C   0  0  0  0  0  0  0  0  0  0  0  0
    5.0476    2.0447    0.1169 C   0  0  0  0  0  0  0  0  0  0  0  0
    5.7324    1.2886    1.0684 C   0  0  0  0  0  0  0  0  0  0  0  0
   -1.5739    2.9125   -0.6233 C   0  0  0  0  0  0  0  0  0  0  0  0
    3.2741   -0.2388   -2.7333 H   0  0  0  0  0  0  0  0  0  0  0  0
    3.3200   -1.7193   -1.7803 H   0  0  0  0  0  0  0  0  0  0  0  0
   -0.0990    1.1070   -0.6188 H   0  0  0  0  0  0  0  0  0  0  0  0
   -3.3341   -2.5002    0.4263 H   0  0  0  0  0  0  0  0  0  0  0  0
   -0.9967   -3.0324    0.0400 H   0  0  0  0  0  0  0  0  0  0  0  0
    1.2612    0.3352   -1.8474 H   0  0  0  0  0  0  0  0  0  0  0  0
    4.5885   -1.8030    0.2426 H   0  0  0  0  0  0  0  0  0  0  0  0
   -5.5472   -1.9329   -0.3811 H   0  0  0  0  0  0  0  0  0  0  0  0
    3.6680    2.0158   -1.5289 H   0  0  0  0  0  0  0  0  0  0  0  0
   -4.6828    2.0034    1.1781 H   0  0  0  0  0  0  0  0  0  0  0  0
    5.1771    3.1225    0.0839 H   0  0  0  0  0  0  0  0  0  0  0  0
   -7.6070   -0.6133    0.3099 H   0  0  0  0  0  0  0  0  0  0  0  0
    6.3924    1.7901    1.7711 H   0  0  0  0  0  0  0  0  0  0  0  0
   -0.8184    2.9826    0.1668 H   0  0  0  0  0  0  0  0  0  0  0  0
   -1.1367    2.7363   -1.6122 H   0  0  0  0  0  0  0  0  0  0  0  0
   -2.0691    3.8883   -0.6697 H   0  0  0  0  0  0  0  0  0  0  0  0
    6.7749   -0.2382    2.5852 H   0  0  0  0  0  0  0  0  0  0  0  0
  1  9  1  0  0  0  0
  1 24  1  0  0  0  0
  2 16  2  0  0  0  0
  3 21  1  0  0  0  0
  3 41  1  0  0  0  0
  4 10  1  0  0  0  0
  4 16  1  0  0  0  0
  4 30  1  0  0  0  0
  5  6  1  0  0  0  0
  5 18  1  0  0  0  0
  5 36  1  0  0  0  0
  6 20  2  0  0  0  0
  7  9  2  0  0  0  0
  7 12  1  0  0  0  0
  7 13  1  0  0  0  0
  8 11  2  0  0  0  0
  8 14  1  0  0  0  0
  8 16  1  0  0  0  0
  9 11  1  0  0  0  0
 10 15  1  0  0  0  0
 10 25  1  0  0  0  0
 10 26  1  0  0  0  0
 11 27  1  0  0  0  0
 12 18  2  0  0  0  0
 12 20  1  0  0  0  0
 13 14  2  0  0  0  0
 13 28  1  0  0  0  0
 14 29  1  0  0  0  0
 15 17  2  0  0  0  0
 15 19  1  0  0  0  0
 17 21  1  0  0  0  0
 17 31  1  0  0  0  0
 18 32  1  0  0  0  0
 19 22  2  0  0  0  0
 19 33  1  0  0  0  0
 20 34  1  0  0  0  0
 21 23  2  0  0  0  0
 22 23  1  0  0  0  0
 22 35  1  0  0  0  0
 23 37  1  0  0  0  0
 24 38  1  0  0  0  0
 24 39  1  0  0  0  0
 24 40  1  0  0  0  0
M  END
> <PUBCHEM_COMPOUND_CID>
77108486

> <PUBCHEM_CONFORMER_RMSD>
0.8

> <PUBCHEM_CONFORMER_DIVERSEORDER>
10
33
52
28
31
8
25
53
39
49
17
45
44
26
19
41
55
6
37
20
12
40
4
54
11
5
2
35
47
43
16
22
48
9
18
34
1
42
51
23
15
14
36
46
27
21
50
3
29
32
24
7
38
30
13

> <PUBCHEM_MMFF94_PARTIAL_CHARGES>
36
1 -0.36
10 0.44
11 -0.15
12 -0.05
13 -0.15
14 -0.15
15 -0.14
16 0.54
17 -0.15
18 -0.3
19 -0.15
2 -0.57
20 0.14
21 0.08
22 -0.15
23 -0.15
24 0.28
27 0.15
28 0.15
29 0.15
3 -0.53
30 0.37
31 0.15
32 0.15
33 0.15
34 0.15
35 0.15
36 0.27
37 0.15
4 -0.73
41 0.45
5 0.3
6 -0.71
7 0.05
8 0.09
9 0.08

> <PUBCHEM_EFFECTIVE_ROTOR_COUNT>
6

> <PUBCHEM_PHARMACOPHORE_FEATURES>
9
1 1 acceptor
1 2 acceptor
1 3 donor
1 4 donor
1 5 donor
1 6 acceptor
5 5 6 12 18 20 rings
6 15 17 19 21 22 23 rings
6 7 8 9 11 13 14 rings

> <PUBCHEM_HEAVY_ATOM_COUNT>
24

> <PUBCHEM_ATOM_DEF_STEREO_COUNT>
0

> <PUBCHEM_ATOM_UDEF_STEREO_COUNT>
0

> <PUBCHEM_BOND_DEF_STEREO_COUNT>
0

> <PUBCHEM_BOND_UDEF_STEREO_COUNT>
0

> <PUBCHEM_ISOTOPIC_ATOM_COUNT>
0

> <PUBCHEM_COMPONENT_COUNT>
1

> <PUBCHEM_CACTVS_TAUTO_COUNT>
21

> <PUBCHEM_CONFORMER_ID>
049895060000000A

> <PUBCHEM_MMFF94_ENERGY>
68.3016

> <PUBCHEM_FEATURE_SELFOVERLAP>
45.672

> <PUBCHEM_SHAPE_FINGERPRINT>
10 15 18335706073757993096
10692045 39 18260827051791172690
12035758 1 18264506103960384891
12166972 35 17022906752615695700
12236239 1 17385444327790238503
12596602 18 17168426068811872216
12616971 3 16732985374529899982
12838862 33 18410004405087615573
12925494 130 18050280362822721713
13150687 139 10375583868238695760
13402501 40 18272089417818371080
13533116 47 17822290154798849722
13668630 136 13984662534149053008
13685833 64 13045939118969130588
13914758 101 15502365704726459263
14341114 176 18113896066244519752
15510800 12 13118542023920816376
17349148 13 17240773877567915582
173720 79 18040719173058159663
21033648 29 17631437008617865946
21150785 3 14189567538487102297
21315764 268 18408035213336231684
21792934 111 18189055309644137529
21859007 373 17314777504408446943
22149856 69 18197244532540938307
2215653 11 7781514802286367873
23559900 14 18267606683474415214
24771293 8 18343305890141178445
2916195 48 18202003226817245499
34797466 226 16415211099744260725
3680242 22 18334019393067534936
4058900 60 12534809110168847461
4340502 62 17458351835969570507
465052 167 13406792229603749410
5104073 3 18187931741266207794
960060 61 9799690407409474122

> <PUBCHEM_SHAPE_MULTIPOLES>
461.36
16.68
2.26
1.2
0.44
0.79
-0.09
3.7
-7.09
0.05
0.2
-1.81
-0.06
-0.17

> <PUBCHEM_SHAPE_SELFOVERLAP>
1007.709

> <PUBCHEM_SHAPE_VOLUME>
251.1

> <PUBCHEM_COORDINATE_TYPE>
2
5
10

$$$$
90354177
  -OEChem-05102415143D

 40 42  0     0  0  0  0  0  0999 V2000
    4.8836   -3.3314    0.3937 Cl  0  0  0  0  0  0  0  0  0  0  0  0
   -2.3568   -1.8576   -0.5299 O   0  0  0  0  0  0  0  0  0  0  0  0
    1.4022    2.6127    0.3263 O   0  0  0  0  0  0  0  0  0  0  0  0
    1.7856    0.9300   -1.2224 N   0  0  0  0  0  0  0  0  0  0  0  0
   -6.3686   -0.4500    1.1237 N   0  0  0  0  0  0  0  0  0  0  0  0
   -6.5165   -0.8656   -0.1458 N   0  0  0  0  0  0  0  0  0  0  0  0
   -3.0464    0.3625    0.0812 C   0  0  0  0  0  0  0  0  0  0  0  0
   -0.4023    1.2086   -0.1941 C   0  0  0  0  0  0  0  0  0  0  0  0
   -2.0580   -0.5483   -0.2922 C   0  0  0  0  0  0  0  0  0  0  0  0
   -0.7359   -0.1251   -0.4299 C   0  0  0  0  0  0  0  0  0  0  0  0
    3.1802    1.2300   -1.4543 C   0  0  0  0  0  0  0  0  0  0  0  0
   -4.4152   -0.0528    0.2305 C   0  0  0  0  0  0  0  0  0  0  0  0
   -2.7128    1.6963    0.3167 C   0  0  0  0  0  0  0  0  0  0  0  0
   -1.3908    2.1194    0.1793 C   0  0  0  0  0  0  0  0  0  0  0  0
    0.9762    1.6497   -0.3358 C   0  0  0  0  0  0  0  0  0  0  0  0
    4.0801    0.4805   -0.5148 C   0  0  0  0  0  0  0  0  0  0  0  0
   -5.1283    0.0454    1.4005 C   0  0  0  0  0  0  0  0  0  0  0  0
   -5.3200   -0.6204   -0.6864 C   0  0  0  0  0  0  0  0  0  0  0  0
    4.0658   -0.9142   -0.4991 C   0  0  0  0  0  0  0  0  0  0  0  0
    4.9311    1.1791    0.3419 C   0  0  0  0  0  0  0  0  0  0  0  0
    4.9026   -1.6106    0.3731 C   0  0  0  0  0  0  0  0  0  0  0  0
    5.7676    0.4828    1.2143 C   0  0  0  0  0  0  0  0  0  0  0  0
    5.7536   -0.9121    1.2298 C   0  0  0  0  0  0  0  0  0  0  0  0
   -1.2769   -2.7089   -0.9061 C   0  0  0  0  0  0  0  0  0  0  0  0
    3.3272    2.3124   -1.3659 H   0  0  0  0  0  0  0  0  0  0  0  0
    3.4148    0.9510   -2.4877 H   0  0  0  0  0  0  0  0  0  0  0  0
    0.0623   -0.8142   -0.6738 H   0  0  0  0  0  0  0  0  0  0  0  0
   -3.4682    2.4243    0.6036 H   0  0  0  0  0  0  0  0  0  0  0  0
   -1.1518    3.1638    0.3624 H   0  0  0  0  0  0  0  0  0  0  0  0
    1.3889    0.1858   -1.7861 H   0  0  0  0  0  0  0  0  0  0  0  0
   -4.8769    0.4121    2.3862 H   0  0  0  0  0  0  0  0  0  0  0  0
   -5.1616   -0.8667   -1.7270 H   0  0  0  0  0  0  0  0  0  0  0  0
    3.4048   -1.4587   -1.1699 H   0  0  0  0  0  0  0  0  0  0  0  0
    4.9526    2.2655    0.3414 H   0  0  0  0  0  0  0  0  0  0  0  0
   -7.1585   -0.5342    1.7513 H   0  0  0  0  0  0  0  0  0  0  0  0
    6.4298    1.0266    1.8816 H   0  0  0  0  0  0  0  0  0  0  0  0
    6.4108   -1.4413    1.9150 H   0  0  0  0  0  0  0  0  0  0  0  0
   -0.8290   -2.4024   -1.8578 H   0  0  0  0  0  0  0  0  0  0  0  0
   -0.5382   -2.8063   -0.1031 H   0  0  0  0  0  0  0  0  0  0  0  0
   -1.6982   -3.7072   -1.0661 H   0  0  0  0  0  0  0  0  0  0  0  0
  1 21  1  0  0  0  0
  2  9  1  0  0  0  0
  2 24  1  0  0  0  0
  3 15  2  0  0  0  0
  4 11  1  0  0  0  0
  4 15  1  0  0  0  0
  4 30  1  0  0  0  0
  5  6  1  0  0  0  0
  5 17  1  0  0  0  0
  5 35  1  0  0  0  0
  6 18  2  0  0  0  0
  7  9  2  0  0  0  0
  7 12  1  0  0  0  0
  7 13  1  0  0  0  0
  8 10  2  0  0  0  0
  8 14  1  0  0  0  0
  8 15  1  0  0  0  0
  9 10  1  0  0  0  0
 10 27  1  0  0  0  0
 11 16  1  0  0  0  0
 11 25  1  0  0  0  0
 11 26  1  0  0  0  0
 12 17  2  0  0  0  0
 12 18  1  0  0  0  0
 13 14  2  0  0  0  0
 13 28  1  0  0  0  0
 14 29  1  0  0  0  0
 16 19  2  0  0  0  0
 16 20  1  0  0  0  0
 17 31  1  0  0  0  0
 18 32  1  0  0  0  0
 19 21  1  0  0  0  0
 19 33  1  0  0  0  0
 20 22  2  0  0  0  0
 20 34  1  0  0  0  0
 21 23  2  0  0  0  0
 22 23  1  0  0  0  0
 22 36  1  0  0  0  0
 23 37  1  0  0  0  0
 24 38  1  0  0  0  0
 24 39  1  0  0  0  0
 24 40  1  0  0  0  0
M  END
> <PUBCHEM_COMPOUND_CID>
90354177

> <PUBCHEM_CONFORMER_RMSD>
0.8

> <PUBCHEM_CONFORMER_DIVERSEORDER>
14
35
48
19
51
22
56
30
34
12
8
42
36
20
50
10
54
2
15
17
27
11
16
39
47
29
49
6
40
52
43
37
5
4
33
26
13
31
32
23
1
53
28
7
25
55
3
24
41
38
9
45
46
18
44
21

> <PUBCHEM_MMFF94_PARTIAL_CHARGES>
35
1 -0.18
10 -0.15
11 0.44
12 -0.05
13 -0.15
14 -0.15
15 0.54
16 -0.14
17 -0.3
18 0.14
19 -0.15
2 -0.36
20 -0.15
21 0.18
22 -0.15
23 -0.15
24 0.28
27 0.15
28 0.15
29 0.15
3 -0.57
30 0.37
31 0.15
32 0.15
33 0.15
34 0.15
35 0.27
36 0.15
37 0.15
4 -0.73
5 0.3
6 -0.71
7 0.05
8 0.09
9 0.08

> <PUBCHEM_EFFECTIVE_ROTOR_COUNT>
6

> <PUBCHEM_PHARMACOPHORE_FEATURES>
8
1 2 acceptor
1 3 acceptor
1 4 donor
1 5 donor
1 6 acceptor
5 5 6 12 17 18 rings
6 16 19 20 21 22 23 rings
6 7 8 9 10 13 14 rings

> <PUBCHEM_HEAVY_ATOM_COUNT>
24

> <PUBCHEM_ATOM_DEF_STEREO_COUNT>
0

> <PUBCHEM_ATOM_UDEF_STEREO_COUNT>
0

> <PUBCHEM_BOND_DEF_STEREO_COUNT>
0

> <PUBCHEM_BOND_UDEF_STEREO_COUNT>
0

> <PUBCHEM_ISOTOPIC_ATOM_COUNT>
0

> <PUBCHEM_COMPONENT_COUNT>
1

> <PUBCHEM_CACTVS_TAUTO_COUNT>
7

> <PUBCHEM_CONFORMER_ID>
0562B2010000000E

> <PUBCHEM_MMFF94_ENERGY>
67.0911

> <PUBCHEM_FEATURE_SELFOVERLAP>
40.597

> <PUBCHEM_SHAPE_FINGERPRINT>
11796584 16 17240764012212620753
12236239 1 18186239532662513429
12422481 6 18266189335396770161
12596602 18 17489590047740666778
12633257 1 18201727291995172421
13073987 5 18412826858913273600
13533116 47 18409450289069344096
13551218 46 18410293584006579583
13782708 43 16878236371750782459
13862211 1 18412545440282217063
13914758 101 17967247564866338165
14211702 104 18260558848163101843
14251740 57 18338519621747029566
14341114 176 18273211981247443448
14528608 73 9511457814522037208
14617045 38 18411986871169232646
15183329 4 18341336669020537415
15510800 12 17822302240973990674
15537594 2 18335709364336178486
16992610 120 18120099627731636060
17492 89 18192991514021667306
17857418 61 18412261761507371965
1813 80 17821732757985038636
1979834 28 17917717868469338814
20567600 234 15913042157416798233
208703 8 17460859706450807194
21267235 1 18409736127954432046
21315764 119 14201390552033150802
21424621 283 14692033336122391027
21682296 61 18263368001350366523
21859007 373 18189033362055943637
22061861 79 17022902363011087653
221357 26 11314302841837091470
23366157 5 17977948217348228861
23559900 14 18057327394890721788
2838139 119 10447931633227433728
3004659 81 18334022700545683732
3383291 50 18334295374818569603
3680242 22 18341059544418663051
3886686 26 17262727577569471978
4340502 62 14405193876075129637
46194498 28 16877664591170455924
5104073 3 18200594679460706368
559249 180 18187641349805514749
56633871 153 18340484465668047846
59682541 52 14851873764366000841
960060 61 14129347273780511904

> <PUBCHEM_SHAPE_MULTIPOLES>
469.1
16.16
2.71
1.14
3.14
1.22
0.06
6.49
5.35
-2.45
-0.17
-0.31
0
-0.93

> <PUBCHEM_SHAPE_SELFOVERLAP>
1012.261

> <PUBCHEM_SHAPE_VOLUME>
258.9

> <PUBCHEM_COORDINATE_TYPE>
2
5
10

$$$$
90354036
  -OEChem-05102415143D

 43 45  0     0  0  0  0  0  0999 V2000
   -4.2125   -1.8761   -1.8144 F   0  0  0  0  0  0  0  0  0  0  0  0
   -2.4791   -2.0391   -0.5211 F   0  0  0  0  0  0  0  0  0  0  0  0
   -4.3545   -2.9760    0.0560 F   0  0  0  0  0  0  0  0  0  0  0  0
    4.1891    1.9598   -0.2356 O   0  0  0  0  0  0  0  0  0  0  0  0
   -0.8484    2.4906   -0.3566 O   0  0  0  0  0  0  0  0  0  0  0  0
   -1.5500    0.4099   -1.1018 N   0  0  0  0  0  0  0  0  0  0  0  0
    6.4126   -2.0098    0.1006 N   0  0  0  0  0  0  0  0  0  0  0  0
    6.6826   -1.2411    1.1694 N   0  0  0  0  0  0  0  0  0  0  0  0
   -3.8128    0.6490   -0.2132 C   0  0  0  0  0  0  0  0  0  0  0  0
   -2.9109    0.7905   -1.4052 C   0  0  0  0  0  0  0  0  0  0  0  0
   -4.2482   -0.6059    0.2124 C   0  0  0  0  0  0  0  0  0  0  0  0
    3.3001   -0.2504    0.0842 C   0  0  0  0  0  0  0  0  0  0  0  0
    0.7403    0.7660   -0.3607 C   0  0  0  0  0  0  0  0  0  0  0  0
    3.1257    1.1074   -0.1839 C   0  0  0  0  0  0  0  0  0  0  0  0
    1.8457    1.6155   -0.4064 C   0  0  0  0  0  0  0  0  0  0  0  0
   -0.5943    1.2957   -0.5907 C   0  0  0  0  0  0  0  0  0  0  0  0
    2.1946   -1.1000    0.1296 C   0  0  0  0  0  0  0  0  0  0  0  0
    0.9148   -0.5919   -0.0926 C   0  0  0  0  0  0  0  0  0  0  0  0
    4.6105   -0.7949    0.3181 C   0  0  0  0  0  0  0  0  0  0  0  0
   -4.2155    1.7960    0.4711 C   0  0  0  0  0  0  0  0  0  0  0  0
   -5.0862   -0.7142    1.3223 C   0  0  0  0  0  0  0  0  0  0  0  0
   -3.8305   -1.8480   -0.5042 C   0  0  0  0  0  0  0  0  0  0  0  0
   -5.0533    1.6877    1.5812 C   0  0  0  0  0  0  0  0  0  0  0  0
   -5.4889    0.4328    2.0066 C   0  0  0  0  0  0  0  0  0  0  0  0
    5.1840   -1.7815   -0.4462 C   0  0  0  0  0  0  0  0  0  0  0  0
    5.5781   -0.5010    1.2975 C   0  0  0  0  0  0  0  0  0  0  0  0
    3.9069    3.3288   -0.5165 C   0  0  0  0  0  0  0  0  0  0  0  0
   -3.2579    0.1851   -2.2477 H   0  0  0  0  0  0  0  0  0  0  0  0
   -2.9093    1.8274   -1.7629 H   0  0  0  0  0  0  0  0  0  0  0  0
   -1.2885   -0.5422   -1.3339 H   0  0  0  0  0  0  0  0  0  0  0  0
    1.6529    2.6600   -0.6254 H   0  0  0  0  0  0  0  0  0  0  0  0
    2.3069   -2.1595    0.3485 H   0  0  0  0  0  0  0  0  0  0  0  0
    0.0803   -1.2821   -0.0141 H   0  0  0  0  0  0  0  0  0  0  0  0
   -3.8844    2.7812    0.1535 H   0  0  0  0  0  0  0  0  0  0  0  0
   -5.4379   -1.6807    1.6722 H   0  0  0  0  0  0  0  0  0  0  0  0
   -5.3665    2.5806    2.1144 H   0  0  0  0  0  0  0  0  0  0  0  0
   -6.1412    0.3489    2.8709 H   0  0  0  0  0  0  0  0  0  0  0  0
    4.8433   -2.3326   -1.3120 H   0  0  0  0  0  0  0  0  0  0  0  0
    5.5282    0.2203    2.1012 H   0  0  0  0  0  0  0  0  0  0  0  0
    7.1149   -2.6723   -0.2037 H   0  0  0  0  0  0  0  0  0  0  0  0
    3.2948    3.7864    0.2683 H   0  0  0  0  0  0  0  0  0  0  0  0
    3.4764    3.4575   -1.5155 H   0  0  0  0  0  0  0  0  0  0  0  0
    4.8649    3.8594   -0.5168 H   0  0  0  0  0  0  0  0  0  0  0  0
  1 22  1  0  0  0  0
  2 22  1  0  0  0  0
  3 22  1  0  0  0  0
  4 14  1  0  0  0  0
  4 27  1  0  0  0  0
  5 16  2  0  0  0  0
  6 10  1  0  0  0  0
  6 16  1  0  0  0  0
  6 30  1  0  0  0  0
  7  8  1  0  0  0  0
  7 25  1  0  0  0  0
  7 40  1  0  0  0  0
  8 26  2  0  0  0  0
  9 10  1  0  0  0  0
  9 11  1  0  0  0  0
  9 20  2  0  0  0  0
 10 28  1  0  0  0  0
 10 29  1  0  0  0  0
 11 21  2  0  0  0  0
 11 22  1  0  0  0  0
 12 14  2  0  0  0  0
 12 17  1  0  0  0  0
 12 19  1  0  0  0  0
 13 15  2  0  0  0  0
 13 16  1  0  0  0  0
 13 18  1  0  0  0  0
 14 15  1  0  0  0  0
 15 31  1  0  0  0  0
 17 18  2  0  0  0  0
 17 32  1  0  0  0  0
 18 33  1  0  0  0  0
 19 25  2  0  0  0  0
 19 26  1  0  0  0  0
 20 23  1  0  0  0  0
 20 34  1  0  0  0  0
 21 24  1  0  0  0  0
 21 35  1  0  0  0  0
 23 24  2  0  0  0  0
 23 36  1  0  0  0  0
 24 37  1  0  0  0  0
 25 38  1  0  0  0  0
 26 39  1  0  0  0  0
 27 41  1  0  0  0  0
 27 42  1  0  0  0  0
 27 43  1  0  0  0  0
M  END
> <PUBCHEM_COMPOUND_CID>
90354036

> <PUBCHEM_CONFORMER_RMSD>
0.8

> <PUBCHEM_CONFORMER_DIVERSEORDER>
4
56
42
48
65
28
40
15
63
71
21
64
3
54
57
44
33
55
53
59
67
50
58
52
7
6
12
68
49
47
72
25
2
45
20
37
61
32
43
70
31
36
19
66
39
38
41
69
16
51
8
62
14
22
34
1
29
17
5
35
46
11
18
24
9
23
30
60
10
27
26
13

> <PUBCHEM_MMFF94_PARTIAL_CHARGES>
38
1 -0.34
10 0.44
11 -0.14
12 0.05
13 0.09
14 0.08
15 -0.15
16 0.54
17 -0.15
18 -0.15
19 -0.05
2 -0.34
20 -0.15
21 -0.15
22 1.16
23 -0.15
24 -0.15
25 -0.3
26 0.14
27 0.28
3 -0.34
30 0.37
31 0.15
32 0.15
33 0.15
34 0.15
35 0.15
36 0.15
37 0.15
38 0.15
39 0.15
4 -0.36
40 0.27
5 -0.57
6 -0.73
7 0.3
8 -0.71
9 -0.14

> <PUBCHEM_EFFECTIVE_ROTOR_COUNT>
7

> <PUBCHEM_PHARMACOPHORE_FEATURES>
8
1 4 acceptor
1 5 acceptor
1 6 donor
1 7 donor
1 8 acceptor
5 7 8 19 25 26 rings
6 12 13 14 15 17 18 rings
6 9 11 20 21 23 24 rings

> <PUBCHEM_HEAVY_ATOM_COUNT>
27

> <PUBCHEM_ATOM_DEF_STEREO_COUNT>
0

> <PUBCHEM_ATOM_UDEF_STEREO_COUNT>
0

> <PUBCHEM_BOND_DEF_STEREO_COUNT>
0

> <PUBCHEM_BOND_UDEF_STEREO_COUNT>
0

> <PUBCHEM_ISOTOPIC_ATOM_COUNT>
0

> <PUBCHEM_COMPONENT_COUNT>
1

> <PUBCHEM_CACTVS_TAUTO_COUNT>
7

> <PUBCHEM_CONFORMER_ID>
0562B17400000004

> <PUBCHEM_MMFF94_ENERGY>
71.4273

> <PUBCHEM_FEATURE_SELFOVERLAP>
40.597

> <PUBCHEM_SHAPE_FINGERPRINT>
11036077 4 18343867710797366483
11315181 36 17774992497365950437
11387372 6 17677066719538173627
11405975 8 18413672417619397256
12107183 9 18268719324658939561
12166972 35 16153721898926396662
12422481 6 17989487390434331414
12616971 3 18410296916816473924
12633257 1 18341617001382998669
13073987 5 18269557293867772177
13782708 43 16950557741263300514
14341114 176 18342459193157054856
14849402 71 18337394950312090768
15021287 119 18334296461381328540
15183329 4 18334574646766804238
15238133 3 17489596627467326217
15250474 111 18271519900643761174
15348495 7 17917423242159985746
15788980 27 18040995137475525133
15799311 1 18337126630265657334
16110190 28 18412267237369024245
17349148 13 17022907826383632792
17780758 139 18343582923973512041
17844677 252 18408042896674047620
1813 80 17240489138875236597
18927931 339 17458346308388481287
19377110 9 18269832167860044304
19841028 212 18116146861078965755
19958102 18 12973892485324194392
20028762 73 18411974780689420022
21065198 48 18341898545190105221
21150785 3 14273751642083736706
21403212 168 18339368440787220009
23522609 53 18044969859542590308
23559900 14 18336530664877675452
24771293 8 18340760542814801192
2838139 119 9943808893793821366
312425 54 18202278074638670794
350125 39 18409450285085905460
3633792 109 18338784642977894845
3737641 26 18118122472508777098
4058900 60 11959728292140269084
4093350 32 17489594481239237820
484985 159 18260539031764214119
5104073 3 18342175608887263184
5924683 9 17917424376453559279
7495541 125 17967251975612959284
8863177 126 17749401394104253642

> <PUBCHEM_SHAPE_MULTIPOLES>
507.14
16.33
2.88
1.32
8.02
0.59
0.26
-5.88
6.23
0.68
-0.53
-1.64
-0.07
-1.71

> <PUBCHEM_SHAPE_SELFOVERLAP>
1110.852

> <PUBCHEM_SHAPE_VOLUME>
276

> <PUBCHEM_COORDINATE_TYPE>
2
5
10

$$$$
118663068
  -OEChem-05102415143D

 47 49  0     1  0  0  0  0  0999 V2000
   -3.0097    1.6943    1.6290 F   0  0  0  0  0  0  0  0  0  0  0  0
   -4.8218   -1.6200   -1.2469 F   0  0  0  0  0  0  0  0  0  0  0  0
    3.1844    1.6854   -0.2923 O   0  0  0  0  0  0  0  0  0  0  0  0
   -3.0785    2.4006   -2.6147 O   0  0  0  0  0  0  0  0  0  0  0  0
   -1.4892   -1.6512   -1.6923 O   0  0  0  0  0  0  0  0  0  0  0  0
   -1.6834    0.4644   -0.7631 N   0  0  0  0  0  0  0  0  0  0  0  0
    6.4442   -1.1326    1.2053 N   0  0  0  0  0  0  0  0  0  0  0  0
    6.8511   -0.5167    0.0822 N   0  0  0  0  0  0  0  0  0  0  0  0
   -3.1021    0.6187   -0.9924 C   0  0  1  0  0  0  0  0  0  0  0  0
   -3.8973    0.0509    0.1634 C   0  0  0  0  0  0  0  0  0  0  0  0
   -3.4473    2.0830   -1.2765 C   0  0  0  0  0  0  0  0  0  0  0  0
    0.4589   -0.6889   -0.8108 C   0  0  0  0  0  0  0  0  0  0  0  0
   -0.9592   -0.6750   -1.1325 C   0  0  0  0  0  0  0  0  0  0  0  0
    3.1787   -0.7161   -0.1901 C   0  0  0  0  0  0  0  0  0  0  0  0
    2.5214    0.4977   -0.3916 C   0  0  0  0  0  0  0  0  0  0  0  0
   -3.8029    0.6327    1.4276 C   0  0  0  0  0  0  0  0  0  0  0  0
   -4.7251   -1.0540   -0.0360 C   0  0  0  0  0  0  0  0  0  0  0  0
    1.1615    0.5112   -0.7019 C   0  0  0  0  0  0  0  0  0  0  0  0
    1.1163   -1.9027   -0.6094 C   0  0  0  0  0  0  0  0  0  0  0  0
    2.4761   -1.9163   -0.2993 C   0  0  0  0  0  0  0  0  0  0  0  0
    4.5797   -0.7529    0.1324 C   0  0  0  0  0  0  0  0  0  0  0  0
   -4.5364    0.1096    2.4926 C   0  0  0  0  0  0  0  0  0  0  0  0
   -5.4586   -1.5771    1.0291 C   0  0  0  0  0  0  0  0  0  0  0  0
   -5.3640   -0.9955    2.2934 C   0  0  0  0  0  0  0  0  0  0  0  0
    5.0925   -1.2984    1.2841 C   0  0  0  0  0  0  0  0  0  0  0  0
    5.7079   -0.2872   -0.5691 C   0  0  0  0  0  0  0  0  0  0  0  0
    2.7174    2.6062    0.6907 C   0  0  0  0  0  0  0  0  0  0  0  0
    3.8855    3.4300    1.1891 C   0  0  0  0  0  0  0  0  0  0  0  0
   -3.3338    0.0452   -1.8991 H   0  0  0  0  0  0  0  0  0  0  0  0
   -1.2332    1.1822   -0.2043 H   0  0  0  0  0  0  0  0  0  0  0  0
   -4.5262    2.2544   -1.1904 H   0  0  0  0  0  0  0  0  0  0  0  0
   -2.9295    2.7734   -0.6022 H   0  0  0  0  0  0  0  0  0  0  0  0
    0.6824    1.4673   -0.8941 H   0  0  0  0  0  0  0  0  0  0  0  0
    0.5861   -2.8485   -0.6857 H   0  0  0  0  0  0  0  0  0  0  0  0
    2.9694   -2.8740   -0.1495 H   0  0  0  0  0  0  0  0  0  0  0  0
   -4.4626    0.5627    3.4768 H   0  0  0  0  0  0  0  0  0  0  0  0
   -6.1028   -2.4374    0.8737 H   0  0  0  0  0  0  0  0  0  0  0  0
   -5.9349   -1.4029    3.1226 H   0  0  0  0  0  0  0  0  0  0  0  0
   -3.3188    3.3310   -2.7634 H   0  0  0  0  0  0  0  0  0  0  0  0
    4.6343   -1.7783    2.1378 H   0  0  0  0  0  0  0  0  0  0  0  0
    5.7489    0.2101   -1.5281 H   0  0  0  0  0  0  0  0  0  0  0  0
    2.2601    2.0807    1.5384 H   0  0  0  0  0  0  0  0  0  0  0  0
    1.9673    3.2622    0.2357 H   0  0  0  0  0  0  0  0  0  0  0  0
    7.1452   -1.4142    1.8791 H   0  0  0  0  0  0  0  0  0  0  0  0
    4.6506    2.7840    1.6324 H   0  0  0  0  0  0  0  0  0  0  0  0
    4.3619    3.9646    0.3607 H   0  0  0  0  0  0  0  0  0  0  0  0
    3.5601    4.1574    1.9380 H   0  0  0  0  0  0  0  0  0  0  0  0
  1 16  1  0  0  0  0
  2 17  1  0  0  0  0
  3 15  1  0  0  0  0
  3 27  1  0  0  0  0
  4 11  1  0  0  0  0
  4 39  1  0  0  0  0
  5 13  2  0  0  0  0
  6  9  1  0  0  0  0
  6 13  1  0  0  0  0
  6 30  1  0  0  0  0
  7  8  1  0  0  0  0
  7 25  1  0  0  0  0
  7 44  1  0  0  0  0
  8 26  2  0  0  0  0
  9 10  1  0  0  0  0
  9 11  1  0  0  0  0
  9 29  1  0  0  0  0
 10 16  2  0  0  0  0
 10 17  1  0  0  0  0
 11 31  1  0  0  0  0
 11 32  1  0  0  0  0
 12 13  1  0  0  0  0
 12 18  2  0  0  0  0
 12 19  1  0  0  0  0
 14 15  2  0  0  0  0
 14 20  1  0  0  0  0
 14 21  1  0  0  0  0
 15 18  1  0  0  0  0
 16 22  1  0  0  0  0
 17 23  2  0  0  0  0
 18 33  1  0  0  0  0
 19 20  2  0  0  0  0
 19 34  1  0  0  0  0
 20 35  1  0  0  0  0
 21 25  2  0  0  0  0
 21 26  1  0  0  0  0
 22 24  2  0  0  0  0
 22 36  1  0  0  0  0
 23 24  1  0  0  0  0
 23 37  1  0  0  0  0
 24 38  1  0  0  0  0
 25 40  1  0  0  0  0
 26 41  1  0  0  0  0
 27 28  1  0  0  0  0
 27 42  1  0  0  0  0
 27 43  1  0  0  0  0
 28 45  1  0  0  0  0
 28 46  1  0  0  0  0
 28 47  1  0  0  0  0
M  END
> <PUBCHEM_COMPOUND_CID>
118663068

> <PUBCHEM_CONFORMER_RMSD>
1

> <PUBCHEM_CONFORMER_DIVERSEORDER>
1
7
11
4
12
5
2
9
10
16
14
13
8
17
6
15
3

> <PUBCHEM_MMFF94_PARTIAL_CHARGES>
38
1 -0.19
10 -0.14
11 0.28
12 0.09
13 0.54
14 0.05
15 0.08
16 0.19
17 0.19
18 -0.15
19 -0.15
2 -0.19
20 -0.15
21 -0.05
22 -0.15
23 -0.15
24 -0.15
25 -0.3
26 0.14
27 0.28
3 -0.36
30 0.37
33 0.15
34 0.15
35 0.15
36 0.15
37 0.15
38 0.15
39 0.4
4 -0.68
40 0.15
41 0.15
44 0.27
5 -0.57
6 -0.73
7 0.3
8 -0.71
9 0.44

> <PUBCHEM_EFFECTIVE_ROTOR_COUNT>
8

> <PUBCHEM_PHARMACOPHORE_FEATURES>
10
1 3 acceptor
1 4 acceptor
1 4 donor
1 5 acceptor
1 6 donor
1 7 donor
1 8 acceptor
5 7 8 21 25 26 rings
6 10 16 17 22 23 24 rings
6 12 14 15 18 19 20 rings

> <PUBCHEM_HEAVY_ATOM_COUNT>
28

> <PUBCHEM_ATOM_DEF_STEREO_COUNT>
1

> <PUBCHEM_ATOM_UDEF_STEREO_COUNT>
0

> <PUBCHEM_BOND_DEF_STEREO_COUNT>
0

> <PUBCHEM_BOND_UDEF_STEREO_COUNT>
0

> <PUBCHEM_ISOTOPIC_ATOM_COUNT>
0

> <PUBCHEM_COMPONENT_COUNT>
1

> <PUBCHEM_CACTVS_TAUTO_COUNT>
9

> <PUBCHEM_CONFORMER_ID>
0712A79C00000001

> <PUBCHEM_MMFF94_ENERGY>
70.1277

> <PUBCHEM_FEATURE_SELFOVERLAP>
50.749

> <PUBCHEM_SHAPE_FINGERPRINT>
105312 117 13254804512556090733
11315181 36 16515689939767988215
11545043 162 17894345558012962196
11646440 116 18131350800519062554
12403259 118 18060426789683894049
12507557 5 18343579612353370373
12616971 3 17703512172307016657
12633257 1 18340498836670402611
13583140 156 18334851676246258567
13782708 43 17749108864251566058
14341114 328 17631748161359662297
14739800 52 17058356231903959664
14849402 71 18200316658012624728
14950920 106 18337403720217630033
14955137 171 18270690775130454926
15081414 286 18131072581159392678
15238133 3 16845583032041502616
1601671 61 18201151071484135630
17844677 252 17821452348339253620
17980427 23 16702293573225490072
18222031 100 15502374564532068078
18785283 64 18337956800521275460
18927931 339 17749398044404704839
21033648 29 18114449124166124388
21033650 10 14548469079889722920
21623969 137 17822011987084392730
21756936 100 16487253253485776215
23198884 109 12247674946825165451
23559900 14 16588308327843926101
23569943 247 17486498096996751126
350125 39 18411697711947267286
38570 142 17913228708633111724
392239 28 18272101525700158211
5104073 3 18198904897392215282
59755656 520 16917069944985072743
7495541 125 17748548147775479958
960060 61 10953732330948886264

> <PUBCHEM_SHAPE_MULTIPOLES>
529.13
15.63
2.64
1.96
7.18
2.15
0.36
-3.89
6.79
1.33
0.06
-2.99
0.45
1.21

> <PUBCHEM_SHAPE_SELFOVERLAP>
1145.826

> <PUBCHEM_SHAPE_VOLUME>
290.4

> <PUBCHEM_COORDINATE_TYPE>
2
5
10

$$$$
118663049
  -OEChem-05102415143D

 45 47  0     1  0  0  0  0  0999 V2000
   -3.0466   -2.0561    0.3042 S   0  0  0  0  0  0  0  0  0  0  0  0
   -4.1396   -1.8554   -0.6337 O   0  0  0  0  0  0  0  0  0  0  0  0
   -2.1645   -3.2026    0.1602 O   0  0  0  0  0  0  0  0  0  0  0  0
    1.8451   -0.6660    1.9247 O   0  0  0  0  0  0  0  0  0  0  0  0
    2.4075    1.1828    0.6432 N   0  0  0  0  0  0  0  0  0  0  0  0
   -6.0673    1.1634   -0.4104 N   0  0  0  0  0  0  0  0  0  0  0  0
   -5.8307    0.9398   -1.7144 N   0  0  0  0  0  0  0  0  0  0  0  0
   -2.0477   -0.6151    0.3170 C   0  0  0  0  0  0  0  0  0  0  0  0
    3.8211    1.1719    0.9443 C   0  0  1  0  0  0  0  0  0  0  0  0
   -2.5483    0.6312   -0.0601 C   0  0  0  0  0  0  0  0  0  0  0  0
    0.1122    0.3809    0.7418 C   0  0  0  0  0  0  0  0  0  0  0  0
   -0.7176   -0.7403    0.7179 C   0  0  0  0  0  0  0  0  0  0  0  0
    4.5876    0.2963   -0.0234 C   0  0  0  0  0  0  0  0  0  0  0  0
   -1.7185    1.7522   -0.0364 C   0  0  0  0  0  0  0  0  0  0  0  0
    1.4991    0.2513    1.1592 C   0  0  0  0  0  0  0  0  0  0  0  0
   -0.3884    1.6272    0.3648 C   0  0  0  0  0  0  0  0  0  0  0  0
   -3.9148    0.7980   -0.4788 C   0  0  0  0  0  0  0  0  0  0  0  0
    4.3586    2.6007    0.9942 C   0  0  0  0  0  0  0  0  0  0  0  0
   -3.7571   -2.1073    1.9319 C   0  0  0  0  0  0  0  0  0  0  0  0
    4.1830    0.2088   -1.3554 C   0  0  0  0  0  0  0  0  0  0  0  0
    5.6986   -0.4231    0.4168 C   0  0  0  0  0  0  0  0  0  0  0  0
   -4.9526    1.0900    0.3724 C   0  0  0  0  0  0  0  0  0  0  0  0
   -4.5143    0.7172   -1.7499 C   0  0  0  0  0  0  0  0  0  0  0  0
    4.8894   -0.5981   -2.2475 C   0  0  0  0  0  0  0  0  0  0  0  0
    6.4050   -1.2302   -0.4752 C   0  0  0  0  0  0  0  0  0  0  0  0
    6.0006   -1.3174   -1.8073 C   0  0  0  0  0  0  0  0  0  0  0  0
    3.9263    0.7403    1.9483 H   0  0  0  0  0  0  0  0  0  0  0  0
   -0.3216   -1.7072    1.0173 H   0  0  0  0  0  0  0  0  0  0  0  0
    2.0967    1.8516   -0.0541 H   0  0  0  0  0  0  0  0  0  0  0  0
   -2.0928    2.7331   -0.3208 H   0  0  0  0  0  0  0  0  0  0  0  0
    0.2138    2.5304    0.3982 H   0  0  0  0  0  0  0  0  0  0  0  0
    5.4174    2.6151    1.2748 H   0  0  0  0  0  0  0  0  0  0  0  0
    3.8044    3.1994    1.7254 H   0  0  0  0  0  0  0  0  0  0  0  0
    4.2646    3.0974    0.0215 H   0  0  0  0  0  0  0  0  0  0  0  0
   -4.3899   -2.9954    1.9953 H   0  0  0  0  0  0  0  0  0  0  0  0
   -2.9529   -2.1742    2.6673 H   0  0  0  0  0  0  0  0  0  0  0  0
   -4.3585   -1.2137    2.0986 H   0  0  0  0  0  0  0  0  0  0  0  0
    3.3314    0.7686   -1.7318 H   0  0  0  0  0  0  0  0  0  0  0  0
    6.0252   -0.3621    1.4515 H   0  0  0  0  0  0  0  0  0  0  0  0
   -5.0034    1.2513    1.4403 H   0  0  0  0  0  0  0  0  0  0  0  0
   -4.0496    0.5061   -2.7029 H   0  0  0  0  0  0  0  0  0  0  0  0
    4.5768   -0.6637   -3.2855 H   0  0  0  0  0  0  0  0  0  0  0  0
    7.2705   -1.7899   -0.1328 H   0  0  0  0  0  0  0  0  0  0  0  0
   -7.0172    1.3614   -0.1221 H   0  0  0  0  0  0  0  0  0  0  0  0
    6.5512   -1.9449   -2.5020 H   0  0  0  0  0  0  0  0  0  0  0  0
  1  2  2  0  0  0  0
  1  3  2  0  0  0  0
  1  8  1  0  0  0  0
  1 19  1  0  0  0  0
  4 15  2  0  0  0  0
  5  9  1  0  0  0  0
  5 15  1  0  0  0  0
  5 29  1  0  0  0  0
  6  7  1  0  0  0  0
  6 22  1  0  0  0  0
  6 44  1  0  0  0  0
  7 23  2  0  0  0  0
  8 10  2  0  0  0  0
  8 12  1  0  0  0  0
  9 13  1  0  0  0  0
  9 18  1  0  0  0  0
  9 27  1  0  0  0  0
 10 14  1  0  0  0  0
 10 17  1  0  0  0  0
 11 12  2  0  0  0  0
 11 15  1  0  0  0  0
 11 16  1  0  0  0  0
 12 28  1  0  0  0  0
 13 20  2  0  0  0  0
 13 21  1  0  0  0  0
 14 16  2  0  0  0  0
 14 30  1  0  0  0  0
 16 31  1  0  0  0  0
 17 22  2  0  0  0  0
 17 23  1  0  0  0  0
 18 32  1  0  0  0  0
 18 33  1  0  0  0  0
 18 34  1  0  0  0  0
 19 35  1  0  0  0  0
 19 36  1  0  0  0  0
 19 37  1  0  0  0  0
 20 24  1  0  0  0  0
 20 38  1  0  0  0  0
 21 25  2  0  0  0  0
 21 39  1  0  0  0  0
 22 40  1  0  0  0  0
 23 41  1  0  0  0  0
 24 26  2  0  0  0  0
 24 42  1  0  0  0  0
 25 26  1  0  0  0  0
 25 43  1  0  0  0  0
 26 45  1  0  0  0  0
M  END
> <PUBCHEM_COMPOUND_CID>
118663049

> <PUBCHEM_CONFORMER_RMSD>
0.8

> <PUBCHEM_CONFORMER_DIVERSEORDER>
2
6
18
9
29
1
22
26
21
31
20
10
24
32
19
17
30
3
27
28
8
7
23
12
15
13
25
4
11
14
16
5

> <PUBCHEM_MMFF94_PARTIAL_CHARGES>
37
1 1.2
10 0.05
11 0.09
12 -0.15
13 -0.14
14 -0.15
15 0.54
16 -0.15
17 -0.05
19 0.11
2 -0.65
20 -0.15
21 -0.15
22 -0.3
23 0.14
24 -0.15
25 -0.15
26 -0.15
28 0.15
29 0.37
3 -0.65
30 0.15
31 0.15
38 0.15
39 0.15
4 -0.57
40 0.15
41 0.15
42 0.15
43 0.15
44 0.27
45 0.15
5 -0.73
6 0.3
7 -0.71
8 -0.01
9 0.44

> <PUBCHEM_EFFECTIVE_ROTOR_COUNT>
6

> <PUBCHEM_PHARMACOPHORE_FEATURES>
9
1 2 acceptor
1 3 acceptor
1 4 acceptor
1 5 donor
1 6 donor
1 7 acceptor
5 6 7 17 22 23 rings
6 13 20 21 24 25 26 rings
6 8 10 11 12 14 16 rings

> <PUBCHEM_HEAVY_ATOM_COUNT>
26

> <PUBCHEM_ATOM_DEF_STEREO_COUNT>
1

> <PUBCHEM_ATOM_UDEF_STEREO_COUNT>
0

> <PUBCHEM_BOND_DEF_STEREO_COUNT>
0

> <PUBCHEM_BOND_UDEF_STEREO_COUNT>
0

> <PUBCHEM_ISOTOPIC_ATOM_COUNT>
0

> <PUBCHEM_COMPONENT_COUNT>
1

> <PUBCHEM_CACTVS_TAUTO_COUNT>
9

> <PUBCHEM_CONFORMER_ID>
0712A78900000002

> <PUBCHEM_MMFF94_ENERGY>
64.3869

> <PUBCHEM_FEATURE_SELFOVERLAP>
45.69

> <PUBCHEM_SHAPE_FINGERPRINT>
10670039 82 17604712149564550724
107951 10 17821450145047976275
10835480 77 18272081756050525840
11796584 16 18412544319317339018
11991303 11 17749393680655057491
12236239 1 16732987517950273204
12596602 18 12757147948743168197
12616971 3 15791720919580191464
12633046 712 17202492267144343675
12643181 29 18410009919155873154
12760667 363 17561090163760986688
12788726 201 18268702814873342649
13540713 4 18192703669402819641
13692114 37 13394743660273927811
13782708 43 17775002444515963607
13914758 101 15267066904941517491
14790565 3 18265327301586833449
14840074 17 15502380027651672319
15131766 46 14635163364000285134
15183329 4 18411699846820358578
15510800 12 17703523103748170878
17349148 13 13254799083353379833
17844677 252 18337113478870010296
17857418 61 15410891859948361044
19377110 9 13470685966837564378
19958102 18 18337668620472491862
21279426 13 18411416223959086329
21307412 95 18272662211852562190
21315764 119 18114466648075524478
22061861 79 18060138747585883172
2215653 11 18201438060676556340
22393880 68 18408599292686619410
22849339 104 18335423508276996159
23559900 14 18341326777732369288
25269216 80 17750251346610491258
268830 7 13912313577814159316
2838139 119 14201397222845381166
29717793 49 17989484109010842224
3004659 81 17346596362057963396
32027 91 18202569454242716038
3298306 158 18341896268784235038
34797466 226 18339077215058555376
4015057 19 17846489374712567233
404807 14 15908576821763676135
4058900 60 17679017107004609801
4073 2 18338796818798871488
44062 13 18334017228256240239
531348 171 17203609247073940533
542803 24 15285357310259459464
5718773 13 17630893686676147910
59755656 215 18337670815512120094
59755656 520 18271253742453442179
6695519 79 16766760357996352378
8988823 20 15626213620784900608

> <PUBCHEM_SHAPE_MULTIPOLES>
506.37
16.18
2.39
1.73
8.51
0.81
0.45
1.1
6.78
-1.11
-0.54
0.57
0.32
2.8

> <PUBCHEM_SHAPE_SELFOVERLAP>
1086.772

> <PUBCHEM_SHAPE_VOLUME>
281.5

> <PUBCHEM_COORDINATE_TYPE>
2
5
10

$$$$
118663001
  -OEChem-05102415143D

 55 57  0     1  0  0  0  0  0999 V2000
   -2.5730    0.9529    0.6390 O   0  0  0  0  0  0  0  0  0  0  0  0
   -4.4110    1.9714   -1.2632 O   0  0  0  0  0  0  0  0  0  0  0  0
    2.4771   -2.0029    1.5101 O   0  0  0  0  0  0  0  0  0  0  0  0
    2.4137    0.2208    0.8556 N   0  0  0  0  0  0  0  0  0  0  0  0
    3.2516    2.2748    2.7033 N   0  0  0  0  0  0  0  0  0  0  0  0
   -5.5577   -2.0019   -1.1440 N   0  0  0  0  0  0  0  0  0  0  0  0
   -5.9908   -1.5799    0.0563 N   0  0  0  0  0  0  0  0  0  0  0  0
   -3.4890    2.8353   -0.5934 C   0  0  0  0  0  0  0  0  0  0  0  0
    3.8145    0.5003    1.0754 C   0  0  1  0  0  0  0  0  0  0  0  0
   -2.2358    2.0303   -0.2276 C   0  0  0  0  0  0  0  0  0  0  0  0
    4.6256    0.1599   -0.1589 C   0  0  0  0  0  0  0  0  0  0  0  0
   -1.7807   -0.1626    0.5723 C   0  0  0  0  0  0  0  0  0  0  0  0
    4.0396    1.9561    1.5150 C   0  0  0  0  0  0  0  0  0  0  0  0
   -3.1283    3.9761   -1.5464 C   0  0  0  0  0  0  0  0  0  0  0  0
   -4.1987    3.3825    0.6456 C   0  0  0  0  0  0  0  0  0  0  0  0
   -2.3111   -1.4065    0.2300 C   0  0  0  0  0  0  0  0  0  0  0  0
    0.4093   -1.1580    0.7966 C   0  0  0  0  0  0  0  0  0  0  0  0
   -0.4204   -0.0384    0.8557 C   0  0  0  0  0  0  0  0  0  0  0  0
    1.8278   -1.0287    1.0901 C   0  0  0  0  0  0  0  0  0  0  0  0
   -1.4812   -2.5263    0.1713 C   0  0  0  0  0  0  0  0  0  0  0  0
   -0.1210   -2.4020    0.4543 C   0  0  0  0  0  0  0  0  0  0  0  0
   -3.7101   -1.5566   -0.0675 C   0  0  0  0  0  0  0  0  0  0  0  0
    4.0807    0.3568   -1.4277 C   0  0  0  0  0  0  0  0  0  0  0  0
    5.9170   -0.3504   -0.0258 C   0  0  0  0  0  0  0  0  0  0  0  0
    4.8271    0.0434   -2.5637 C   0  0  0  0  0  0  0  0  0  0  0  0
    6.6635   -0.6638   -1.1619 C   0  0  0  0  0  0  0  0  0  0  0  0
   -4.1995   -2.0068   -1.2693 C   0  0  0  0  0  0  0  0  0  0  0  0
   -4.8576   -1.3092    0.7095 C   0  0  0  0  0  0  0  0  0  0  0  0
    6.1186   -0.4666   -2.4308 C   0  0  0  0  0  0  0  0  0  0  0  0
    4.1443   -0.1620    1.8877 H   0  0  0  0  0  0  0  0  0  0  0  0
   -1.7832    1.6364   -1.1480 H   0  0  0  0  0  0  0  0  0  0  0  0
   -1.5035    2.6734    0.2749 H   0  0  0  0  0  0  0  0  0  0  0  0
    5.1010    2.1310    1.7260 H   0  0  0  0  0  0  0  0  0  0  0  0
    3.7502    2.6465    0.7136 H   0  0  0  0  0  0  0  0  0  0  0  0
    1.8667    0.9582    0.4230 H   0  0  0  0  0  0  0  0  0  0  0  0
   -4.0219    4.5345   -1.8480 H   0  0  0  0  0  0  0  0  0  0  0  0
   -2.4219    4.6757   -1.0879 H   0  0  0  0  0  0  0  0  0  0  0  0
   -2.6828    3.5860   -2.4687 H   0  0  0  0  0  0  0  0  0  0  0  0
   -3.5392    4.0304    1.2321 H   0  0  0  0  0  0  0  0  0  0  0  0
   -5.0877    3.9596    0.3655 H   0  0  0  0  0  0  0  0  0  0  0  0
   -4.5534    2.5707    1.2906 H   0  0  0  0  0  0  0  0  0  0  0  0
   -0.0407    0.9326    1.1609 H   0  0  0  0  0  0  0  0  0  0  0  0
   -1.8742   -3.5062   -0.0902 H   0  0  0  0  0  0  0  0  0  0  0  0
    0.5093   -3.2858    0.3989 H   0  0  0  0  0  0  0  0  0  0  0  0
    3.0846    0.7678   -1.5651 H   0  0  0  0  0  0  0  0  0  0  0  0
    6.3537   -0.5066    0.9569 H   0  0  0  0  0  0  0  0  0  0  0  0
   -5.1942    2.4944   -1.5058 H   0  0  0  0  0  0  0  0  0  0  0  0
    3.4659    3.2242    3.0053 H   0  0  0  0  0  0  0  0  0  0  0  0
    3.5261    1.6616    3.4696 H   0  0  0  0  0  0  0  0  0  0  0  0
    4.4046    0.2002   -3.5519 H   0  0  0  0  0  0  0  0  0  0  0  0
    7.6692   -1.0605   -1.0586 H   0  0  0  0  0  0  0  0  0  0  0  0
   -3.7211   -2.3227   -2.1861 H   0  0  0  0  0  0  0  0  0  0  0  0
   -4.9197   -0.9430    1.7247 H   0  0  0  0  0  0  0  0  0  0  0  0
    6.7003   -0.7096   -3.3152 H   0  0  0  0  0  0  0  0  0  0  0  0
   -6.2466   -2.2722   -1.8348 H   0  0  0  0  0  0  0  0  0  0  0  0
  1 10  1  0  0  0  0
  1 12  1  0  0  0  0
  2  8  1  0  0  0  0
  2 47  1  0  0  0  0
  3 19  2  0  0  0  0
  4  9  1  0  0  0  0
  4 19  1  0  0  0  0
  4 35  1  0  0  0  0
  5 13  1  0  0  0  0
  5 48  1  0  0  0  0
  5 49  1  0  0  0  0
  6  7  1  0  0  0  0
  6 27  1  0  0  0  0
  6 55  1  0  0  0  0
  7 28  2  0  0  0  0
  8 10  1  0  0  0  0
  8 14  1  0  0  0  0
  8 15  1  0  0  0  0
  9 11  1  0  0  0  0
  9 13  1  0  0  0  0
  9 30  1  0  0  0  0
 10 31  1  0  0  0  0
 10 32  1  0  0  0  0
 11 23  2  0  0  0  0
 11 24  1  0  0  0  0
 12 16  2  0  0  0  0
 12 18  1  0  0  0  0
 13 33  1  0  0  0  0
 13 34  1  0  0  0  0
 14 36  1  0  0  0  0
 14 37  1  0  0  0  0
 14 38  1  0  0  0  0
 15 39  1  0  0  0  0
 15 40  1  0  0  0  0
 15 41  1  0  0  0  0
 16 20  1  0  0  0  0
 16 22  1  0  0  0  0
 17 18  2  0  0  0  0
 17 19  1  0  0  0  0
 17 21  1  0  0  0  0
 18 42  1  0  0  0  0
 20 21  2  0  0  0  0
 20 43  1  0  0  0  0
 21 44  1  0  0  0  0
 22 27  2  0  0  0  0
 22 28  1  0  0  0  0
 23 25  1  0  0  0  0
 23 45  1  0  0  0  0
 24 26  2  0  0  0  0
 24 46  1  0  0  0  0
 25 29  2  0  0  0  0
 25 50  1  0  0  0  0
 26 29  1  0  0  0  0
 26 51  1  0  0  0  0
 27 52  1  0  0  0  0
 28 53  1  0  0  0  0
 29 54  1  0  0  0  0
M  END
> <PUBCHEM_COMPOUND_CID>
118663001

> <PUBCHEM_CONFORMER_RMSD>
1

> <PUBCHEM_CONFORMER_DIVERSEORDER>
1
26
20
21
18
17
5
25
3
27
6
22
16
23
4
12
24
7
15
9
14
2
13
11
8
19
10

> <PUBCHEM_MMFF94_PARTIAL_CHARGES>
42
1 -0.36
10 0.28
11 -0.14
12 0.08
13 0.27
16 0.05
17 0.09
18 -0.15
19 0.54
2 -0.68
20 -0.15
21 -0.15
22 -0.05
23 -0.15
24 -0.15
25 -0.15
26 -0.15
27 -0.3
28 0.14
29 -0.15
3 -0.57
35 0.37
4 -0.73
42 0.15
43 0.15
44 0.15
45 0.15
46 0.15
47 0.4
48 0.36
49 0.36
5 -0.99
50 0.15
51 0.15
52 0.15
53 0.15
54 0.15
55 0.27
6 0.3
7 -0.71
8 0.28
9 0.44

> <PUBCHEM_EFFECTIVE_ROTOR_COUNT>
9

> <PUBCHEM_PHARMACOPHORE_FEATURES>
13
1 1 acceptor
1 2 acceptor
1 2 donor
1 3 acceptor
1 4 donor
1 5 cation
1 5 donor
1 6 donor
1 7 acceptor
3 8 14 15 hydrophobe
5 6 7 22 27 28 rings
6 11 23 24 25 26 29 rings
6 12 16 17 18 20 21 rings

> <PUBCHEM_HEAVY_ATOM_COUNT>
29

> <PUBCHEM_ATOM_DEF_STEREO_COUNT>
1

> <PUBCHEM_ATOM_UDEF_STEREO_COUNT>
0

> <PUBCHEM_BOND_DEF_STEREO_COUNT>
0

> <PUBCHEM_BOND_UDEF_STEREO_COUNT>
0

> <PUBCHEM_ISOTOPIC_ATOM_COUNT>
0

> <PUBCHEM_COMPONENT_COUNT>
1

> <PUBCHEM_CACTVS_TAUTO_COUNT>
9

> <PUBCHEM_CONFORMER_ID>
0712A75900000001

> <PUBCHEM_MMFF94_ENERGY>
80.578

> <PUBCHEM_FEATURE_SELFOVERLAP>
65.977

> <PUBCHEM_SHAPE_FINGERPRINT>
10670039 82 18187087247869559644
11315621 246 18342740758207266567
12390115 104 18340212882311522297
12788726 201 18187918487376901627
12954195 1 18343305838395257873
13540713 5 18116420450010047539
13617811 41 18334297612712340647
13782708 43 18060142067575114638
14294032 229 18262524663727799869
14347332 77 18201719526831775818
14856354 85 18188784958612209315
14910302 57 18059855120762199686
14955137 171 18047200927970779963
15001296 14 17678462089101845700
15082195 135 18113892754096832156
15183329 4 18411989070229905126
15575132 122 18333732420790908095
15840311 113 17988087824455053835
16991971 28 18194404614324135607
19958102 18 18131068255320801999
21033650 10 18409176497699429648
21315763 178 13542466445374944510
21641784 216 18259980483745784341
22122407 14 15213011653007433350
221357 26 18272653480473757666
22393880 68 18342733001327024536
23536364 44 17988647350275340360
23559900 14 18198345255001149874
249057 25 17603860101167025626
25147074 1 18040989588647070762
2747138 104 18189622807762087427
3004659 81 16630256895841700342
4098825 35 17561091327860784584
46194498 28 17917433189694587308
497634 4 17632583794428403715
508706 21 18409726287662241016
5252454 2 18190740830092636769
59755656 520 17702402662543827073
6086070 43 18272082761051144144
6608658 132 17894915092061935613
7237137 82 18410855443428392549
7808743 9 18115875104879613284

> <PUBCHEM_SHAPE_MULTIPOLES>
559.27
15.64
3.7
1.99
10.72
3.2
-0.37
-0.44
-7.15
-7.02
-0.24
3.09
0.73
1.27

> <PUBCHEM_SHAPE_SELFOVERLAP>
1196.306

> <PUBCHEM_SHAPE_VOLUME>
311.6

> <PUBCHEM_COORDINATE_TYPE>
2
5
10

$$$$
118663092
  -OEChem-05102415143D

 58 61  0     1  0  0  0  0  0999 V2000
    5.8406   -1.1393   -0.8177 O   0  0  0  0  0  0  0  0  0  0  0  0
   -0.1608   -0.3087    1.9844 O   0  0  0  0  0  0  0  0  0  0  0  0
    6.3847    3.3819    0.2016 N   0  0  0  0  0  0  0  0  0  0  0  0
    4.5336    0.1540    0.5971 N   0  0  0  0  0  0  0  0  0  0  0  0
   -0.6798   -2.3598    1.0342 N   0  0  0  0  0  0  0  0  0  0  0  0
   -7.5637    2.4405   -0.8528 N   0  0  0  0  0  0  0  0  0  0  0  0
   -8.2354    1.2856   -0.7075 N   0  0  0  0  0  0  0  0  0  0  0  0
    5.4468    2.2983   -0.1260 C   0  0  2  0  0  0  0  0  0  0  0  0
    4.0967    2.9992   -0.1303 C   0  0  0  0  0  0  0  0  0  0  0  0
    4.4025    4.3845   -0.6799 C   0  0  0  0  0  0  0  0  0  0  0  0
    5.9149    4.5297   -0.5818 C   0  0  0  0  0  0  0  0  0  0  0  0
    5.5205    1.1571    0.8757 C   0  0  0  0  0  0  0  0  0  0  0  0
    4.7769   -0.9305   -0.2404 C   0  0  0  0  0  0  0  0  0  0  0  0
    3.6425   -1.8670   -0.4476 C   0  0  0  0  0  0  0  0  0  0  0  0
    2.6609   -2.0018    0.5342 C   0  0  0  0  0  0  0  0  0  0  0  0
    1.5961   -2.8817    0.3398 C   0  0  0  0  0  0  0  0  0  0  0  0
    3.5596   -2.6123   -1.6239 C   0  0  0  0  0  0  0  0  0  0  0  0
    0.5470   -3.0269    1.3896 C   0  0  0  0  0  0  0  0  0  0  0  0
    1.5130   -3.6269   -0.8366 C   0  0  0  0  0  0  0  0  0  0  0  0
    2.4949   -3.4923   -1.8182 C   0  0  0  0  0  0  0  0  0  0  0  0
   -4.7408    0.4996    0.1717 C   0  0  0  0  0  0  0  0  0  0  0  0
   -4.1531   -0.5427   -0.5454 C   0  0  0  0  0  0  0  0  0  0  0  0
   -2.2568   -0.5030    0.9512 C   0  0  0  0  0  0  0  0  0  0  0  0
   -2.9111   -1.0439   -0.1555 C   0  0  0  0  0  0  0  0  0  0  0  0
   -0.9340   -1.0362    1.3669 C   0  0  0  0  0  0  0  0  0  0  0  0
   -4.0862    1.0408    1.2783 C   0  0  0  0  0  0  0  0  0  0  0  0
   -2.8444    0.5393    1.6682 C   0  0  0  0  0  0  0  0  0  0  0  0
   -6.0202    1.0350   -0.2100 C   0  0  0  0  0  0  0  0  0  0  0  0
   -4.8239   -1.1475   -1.7373 C   0  0  0  0  0  0  0  0  0  0  0  0
   -6.2334    2.3441   -0.5670 C   0  0  0  0  0  0  0  0  0  0  0  0
   -7.2874    0.4307   -0.3148 C   0  0  0  0  0  0  0  0  0  0  0  0
    5.6644    1.9236   -1.1358 H   0  0  0  0  0  0  0  0  0  0  0  0
    3.6893    3.0914    0.8845 H   0  0  0  0  0  0  0  0  0  0  0  0
    3.3554    2.4767   -0.7437 H   0  0  0  0  0  0  0  0  0  0  0  0
    4.0756    4.4720   -1.7218 H   0  0  0  0  0  0  0  0  0  0  0  0
    3.8827    5.1524   -0.0970 H   0  0  0  0  0  0  0  0  0  0  0  0
    6.2037    5.4715   -0.1060 H   0  0  0  0  0  0  0  0  0  0  0  0
    6.3599    4.5067   -1.5836 H   0  0  0  0  0  0  0  0  0  0  0  0
    7.3367    3.1301   -0.0582 H   0  0  0  0  0  0  0  0  0  0  0  0
    5.3367    1.5134    1.8959 H   0  0  0  0  0  0  0  0  0  0  0  0
    6.5165    0.6996    0.8591 H   0  0  0  0  0  0  0  0  0  0  0  0
    3.6103    0.3042    0.9891 H   0  0  0  0  0  0  0  0  0  0  0  0
    2.7171   -1.4564    1.4720 H   0  0  0  0  0  0  0  0  0  0  0  0
    4.3119   -2.5182   -2.4026 H   0  0  0  0  0  0  0  0  0  0  0  0
    0.3138   -4.0874    1.5413 H   0  0  0  0  0  0  0  0  0  0  0  0
    0.8981   -2.6437    2.3551 H   0  0  0  0  0  0  0  0  0  0  0  0
    0.6880   -4.3154   -0.9997 H   0  0  0  0  0  0  0  0  0  0  0  0
    2.4295   -4.0718   -2.7345 H   0  0  0  0  0  0  0  0  0  0  0  0
   -1.3848   -2.9233    0.5716 H   0  0  0  0  0  0  0  0  0  0  0  0
   -2.4597   -1.8341   -0.7489 H   0  0  0  0  0  0  0  0  0  0  0  0
   -4.5282    1.8501    1.8551 H   0  0  0  0  0  0  0  0  0  0  0  0
   -2.3529    0.9704    2.5364 H   0  0  0  0  0  0  0  0  0  0  0  0
   -5.6699   -1.7693   -1.4283 H   0  0  0  0  0  0  0  0  0  0  0  0
   -5.1664   -0.3766   -2.4355 H   0  0  0  0  0  0  0  0  0  0  0  0
   -4.1378   -1.7891   -2.3020 H   0  0  0  0  0  0  0  0  0  0  0  0
   -5.5785    3.2010   -0.6454 H   0  0  0  0  0  0  0  0  0  0  0  0
   -7.5662   -0.5951   -0.1185 H   0  0  0  0  0  0  0  0  0  0  0  0
   -8.0774    3.2600   -1.1517 H   0  0  0  0  0  0  0  0  0  0  0  0
  1 13  2  0  0  0  0
  2 25  2  0  0  0  0
  3  8  1  0  0  0  0
  3 11  1  0  0  0  0
  3 39  1  0  0  0  0
  4 12  1  0  0  0  0
  4 13  1  0  0  0  0
  4 42  1  0  0  0  0
  5 18  1  0  0  0  0
  5 25  1  0  0  0  0
  5 49  1  0  0  0  0
  6  7  1  0  0  0  0
  6 30  1  0  0  0  0
  6 58  1  0  0  0  0
  7 31  2  0  0  0  0
  8  9  1  0  0  0  0
  8 12  1  0  0  0  0
  8 32  1  0  0  0  0
  9 10  1  0  0  0  0
  9 33  1  0  0  0  0
  9 34  1  0  0  0  0
 10 11  1  0  0  0  0
 10 35  1  0  0  0  0
 10 36  1  0  0  0  0
 11 37  1  0  0  0  0
 11 38  1  0  0  0  0
 12 40  1  0  0  0  0
 12 41  1  0  0  0  0
 13 14  1  0  0  0  0
 14 15  1  0  0  0  0
 14 17  2  0  0  0  0
 15 16  2  0  0  0  0
 15 43  1  0  0  0  0
 16 18  1  0  0  0  0
 16 19  1  0  0  0  0
 17 20  1  0  0  0  0
 17 44  1  0  0  0  0
 18 45  1  0  0  0  0
 18 46  1  0  0  0  0
 19 20  2  0  0  0  0
 19 47  1  0  0  0  0
 20 48  1  0  0  0  0
 21 22  2  0  0  0  0
 21 26  1  0  0  0  0
 21 28  1  0  0  0  0
 22 24  1  0  0  0  0
 22 29  1  0  0  0  0
 23 24  2  0  0  0  0
 23 25  1  0  0  0  0
 23 27  1  0  0  0  0
 24 50  1  0  0  0  0
 26 27  2  0  0  0  0
 26 51  1  0  0  0  0
 27 52  1  0  0  0  0
 28 30  2  0  0  0  0
 28 31  1  0  0  0  0
 29 53  1  0  0  0  0
 29 54  1  0  0  0  0
 29 55  1  0  0  0  0
 30 56  1  0  0  0  0
 31 57  1  0  0  0  0
M  END
> <PUBCHEM_COMPOUND_CID>
118663092

> <PUBCHEM_CONFORMER_RMSD>
1.2

> <PUBCHEM_CONFORMER_DIVERSEORDER>
1
119
98
83
67
42
75
71
110
6
31
80
52
66
61
101
115
33
57
114
29
72
21
68
116
113
55
77
60
48
51
65
58
121
14
111
73
104
8
100
103
63
56
89
94
12
41
99
16
102
25
11
93
107
74
54
70
53
78
34
30
50
40
24
64
38
112
79
47
109
7
91
117
76
105
96
45
108
18
106
49
28
22
32
97
3
88
36
43
92
39
95
46
13
90
37
2
82
87
120
10
62
84
20
17
26
81
9
5
35
19
69
27
59
44
23
4
118
85
86
15

> <PUBCHEM_MMFF94_PARTIAL_CHARGES>
42
1 -0.57
11 0.27
12 0.3
13 0.54
14 0.09
15 -0.15
16 -0.14
17 -0.15
18 0.44
19 -0.15
2 -0.57
20 -0.15
21 0.05
22 -0.14
23 0.09
24 -0.15
25 0.54
26 -0.15
27 -0.15
28 -0.05
29 0.14
3 -0.9
30 -0.3
31 0.14
39 0.36
4 -0.73
42 0.37
43 0.15
44 0.15
47 0.15
48 0.15
49 0.37
5 -0.73
50 0.15
51 0.15
52 0.15
56 0.15
57 0.15
58 0.27
6 0.3
7 -0.71
8 0.27

> <PUBCHEM_EFFECTIVE_ROTOR_COUNT>
10

> <PUBCHEM_PHARMACOPHORE_FEATURES>
12
1 1 acceptor
1 2 acceptor
1 3 cation
1 3 donor
1 4 donor
1 5 donor
1 6 donor
1 7 acceptor
5 3 8 9 10 11 rings
5 6 7 28 30 31 rings
6 14 15 16 17 19 20 rings
6 21 22 23 24 26 27 rings

> <PUBCHEM_HEAVY_ATOM_COUNT>
31

> <PUBCHEM_ATOM_DEF_STEREO_COUNT>
1

> <PUBCHEM_ATOM_UDEF_STEREO_COUNT>
0

> <PUBCHEM_BOND_DEF_STEREO_COUNT>
0

> <PUBCHEM_BOND_UDEF_STEREO_COUNT>
0

> <PUBCHEM_ISOTOPIC_ATOM_COUNT>
0

> <PUBCHEM_COMPONENT_COUNT>
1

> <PUBCHEM_CACTVS_TAUTO_COUNT>
40

> <PUBCHEM_CONFORMER_ID>
0712A7B400000001

> <PUBCHEM_MMFF94_ENERGY>
64.9204

> <PUBCHEM_FEATURE_SELFOVERLAP>
60.898

> <PUBCHEM_SHAPE_FINGERPRINT>
10673678 19 18411140250856775811
10811444 77 18409167731692809728
11017883 126 17631733756013738974
11135609 187 18341327906818287801
11211813 74 18262513673169980245
11374522 363 17904768022181116428
11386260 185 18270404871995178190
12104220 4 17386288809061932476
12539747 72 17385447609830945451
13165053 68 18266174132115188191
14040221 178 18411989069575752470
14117953 113 18412266134623167564
14251764 30 10087652497986066020
14556957 393 17489312932435830457
14725015 67 18188203188132371008
15064981 194 18201172026244710667
15082195 135 18130790031934793370
15183329 4 17916582025992410259
15198563 99 17263842980682544654
15320295 44 18273208729377400599
15721738 15 18201719608731898760
15979999 66 17838626557137016742
19053607 189 18268138950382148024
20715895 44 18408321095006884416
21033648 29 17313107475295612658
21133410 38 18058469641559118880
21792934 111 12108074319877212999
23522609 53 17273715186740011875
23559900 14 17130683060530738819
23569914 2 16663978818623451437
27425 322 18259700116285573762
2748736 6 18336821013436213232
2838139 119 18407757045421015818
3004659 81 17558826187568448039
34797466 226 18270964532103954967
3534868 343 17416414164404325010
394071 54 18337116678662947385
4112364 45 17967799575252850320
44317340 157 18339086999432093875
44880168 125 13985205736344352416
46194498 28 18340484452887822423
5109719 28 18334864930768587537
513202 73 10879727493566492219
5372103 7 18335700568021863320
57091435 61 18409164372700804402
57634706 280 17967254187479153387
57634706 306 18260542325529103483
5951187 136 18334293150441630722
6327066 14 18339924947952041424
6371009 1 18343302544682759264
6700243 42 14117530791666815072

> <PUBCHEM_SHAPE_MULTIPOLES>
601.32
20.96
5.57
1.53
21.88
2.98
-0.11
23.1
6.27
-11.83
1.85
0.46
-0.86
0.92

> <PUBCHEM_SHAPE_SELFOVERLAP>
1300.049

> <PUBCHEM_SHAPE_VOLUME>
330.8

> <PUBCHEM_COORDINATE_TYPE>
2
5
10

$$$$
118662931
  -OEChem-05102415143D

 51 53  0     1  0  0  0  0  0999 V2000
    5.8868   -2.0400    0.0102 S   0  0  0  0  0  0  0  0  0  0  0  0
    0.2628    1.1964   -2.0260 O   0  0  0  0  0  0  0  0  0  0  0  0
    5.8267   -1.7740    1.4341 O   0  0  0  0  0  0  0  0  0  0  0  0
    7.1320   -1.8973   -0.7193 O   0  0  0  0  0  0  0  0  0  0  0  0
   -4.6148    1.6803   -0.7427 O   0  0  0  0  0  0  0  0  0  0  0  0
    1.0504   -0.2898   -0.4302 N   0  0  0  0  0  0  0  0  0  0  0  0
    4.6798   -1.1426   -0.7976 N   0  0  0  0  0  0  0  0  0  0  0  0
   -7.0229   -1.3645    1.6542 N   0  0  0  0  0  0  0  0  0  0  0  0
   -7.5534   -1.2236    0.4274 N   0  0  0  0  0  0  0  0  0  0  0  0
    2.4586   -0.0818   -0.6889 C   0  0  2  0  0  0  0  0  0  0  0  0
    3.2650   -1.3631   -0.4484 C   0  0  0  0  0  0  0  0  0  0  0  0
    2.9869    1.0739    0.1350 C   0  0  0  0  0  0  0  0  0  0  0  0
    0.0611    0.3781   -1.1326 C   0  0  0  0  0  0  0  0  0  0  0  0
    3.9768    1.9070   -0.3863 C   0  0  0  0  0  0  0  0  0  0  0  0
    2.4833    1.3055    1.4151 C   0  0  0  0  0  0  0  0  0  0  0  0
   -1.3358    0.0734   -0.7292 C   0  0  0  0  0  0  0  0  0  0  0  0
   -3.9595   -0.5011    0.0254 C   0  0  0  0  0  0  0  0  0  0  0  0
   -2.3403    1.0218   -0.9216 C   0  0  0  0  0  0  0  0  0  0  0  0
   -1.6430   -1.1622   -0.1594 C   0  0  0  0  0  0  0  0  0  0  0  0
   -3.6523    0.7346   -0.5443 C   0  0  0  0  0  0  0  0  0  0  0  0
    4.4633    2.9716    0.3726 C   0  0  0  0  0  0  0  0  0  0  0  0
    2.9698    2.3700    2.1740 C   0  0  0  0  0  0  0  0  0  0  0  0
    5.2987   -3.6960   -0.2622 C   0  0  0  0  0  0  0  0  0  0  0  0
   -2.9547   -1.4493    0.2181 C   0  0  0  0  0  0  0  0  0  0  0  0
    3.9600    3.2030    1.6528 C   0  0  0  0  0  0  0  0  0  0  0  0
   -5.3055   -0.8184    0.4200 C   0  0  0  0  0  0  0  0  0  0  0  0
   -5.6797   -1.1327    1.7036 C   0  0  0  0  0  0  0  0  0  0  0  0
   -6.4996   -0.8900   -0.3222 C   0  0  0  0  0  0  0  0  0  0  0  0
   -4.2004    2.9107   -1.3316 C   0  0  0  0  0  0  0  0  0  0  0  0
    2.5509    0.1906   -1.7493 H   0  0  0  0  0  0  0  0  0  0  0  0
    3.1767   -1.6652    0.6020 H   0  0  0  0  0  0  0  0  0  0  0  0
    2.8679   -2.1755   -1.0676 H   0  0  0  0  0  0  0  0  0  0  0  0
    0.8098   -0.8784    0.3606 H   0  0  0  0  0  0  0  0  0  0  0  0
    4.8316   -0.9769   -1.8014 H   0  0  0  0  0  0  0  0  0  0  0  0
    4.3758    1.7425   -1.3836 H   0  0  0  0  0  0  0  0  0  0  0  0
    1.7247    0.6653    1.8562 H   0  0  0  0  0  0  0  0  0  0  0  0
   -2.0434    1.9671   -1.3621 H   0  0  0  0  0  0  0  0  0  0  0  0
   -0.8980   -1.9403   -0.0222 H   0  0  0  0  0  0  0  0  0  0  0  0
    5.2336    3.6207   -0.0334 H   0  0  0  0  0  0  0  0  0  0  0  0
    2.5808    2.5481    3.1723 H   0  0  0  0  0  0  0  0  0  0  0  0
   -3.1744   -2.4231    0.6500 H   0  0  0  0  0  0  0  0  0  0  0  0
    6.0485   -4.3847    0.1345 H   0  0  0  0  0  0  0  0  0  0  0  0
    4.3560   -3.8443    0.2663 H   0  0  0  0  0  0  0  0  0  0  0  0
    5.1827   -3.8608   -1.3351 H   0  0  0  0  0  0  0  0  0  0  0  0
    4.3393    4.0313    2.2440 H   0  0  0  0  0  0  0  0  0  0  0  0
   -5.1300   -1.2112    2.6315 H   0  0  0  0  0  0  0  0  0  0  0  0
   -6.6498   -0.7144   -1.3783 H   0  0  0  0  0  0  0  0  0  0  0  0
   -7.6378   -1.6213    2.4163 H   0  0  0  0  0  0  0  0  0  0  0  0
   -5.0920    3.5411   -1.4168 H   0  0  0  0  0  0  0  0  0  0  0  0
   -3.4947    3.4500   -0.6904 H   0  0  0  0  0  0  0  0  0  0  0  0
   -3.8198    2.7661   -2.3486 H   0  0  0  0  0  0  0  0  0  0  0  0
  1  3  2  0  0  0  0
  1  4  2  0  0  0  0
  1  7  1  0  0  0  0
  1 23  1  0  0  0  0
  2 13  2  0  0  0  0
  5 20  1  0  0  0  0
  5 29  1  0  0  0  0
  6 10  1  0  0  0  0
  6 13  1  0  0  0  0
  6 33  1  0  0  0  0
  7 11  1  0  0  0  0
  7 34  1  0  0  0  0
  8  9  1  0  0  0  0
  8 27  1  0  0  0  0
  8 48  1  0  0  0  0
  9 28  2  0  0  0  0
 10 11  1  0  0  0  0
 10 12  1  0  0  0  0
 10 30  1  0  0  0  0
 11 31  1  0  0  0  0
 11 32  1  0  0  0  0
 12 14  2  0  0  0  0
 12 15  1  0  0  0  0
 13 16  1  0  0  0  0
 14 21  1  0  0  0  0
 14 35  1  0  0  0  0
 15 22  2  0  0  0  0
 15 36  1  0  0  0  0
 16 18  2  0  0  0  0
 16 19  1  0  0  0  0
 17 20  2  0  0  0  0
 17 24  1  0  0  0  0
 17 26  1  0  0  0  0
 18 20  1  0  0  0  0
 18 37  1  0  0  0  0
 19 24  2  0  0  0  0
 19 38  1  0  0  0  0
 21 25  2  0  0  0  0
 21 39  1  0  0  0  0
 22 25  1  0  0  0  0
 22 40  1  0  0  0  0
 23 42  1  0  0  0  0
 23 43  1  0  0  0  0
 23 44  1  0  0  0  0
 24 41  1  0  0  0  0
 25 45  1  0  0  0  0
 26 27  2  0  0  0  0
 26 28  1  0  0  0  0
 27 46  1  0  0  0  0
 28 47  1  0  0  0  0
 29 49  1  0  0  0  0
 29 50  1  0  0  0  0
 29 51  1  0  0  0  0
M  END
> <PUBCHEM_COMPOUND_CID>
118662931

> <PUBCHEM_CONFORMER_RMSD>
1

> <PUBCHEM_CONFORMER_DIVERSEORDER>
6
26
46
21
60
14
23
41
48
55
30
27
53
37
39
54
59
57
58
45
15
56
43
52
13
20
49
22
50
25
34
40
38
36
32
16
47
9
44
7
42
1
31
51
33
28
10
18
2
17
35
12
5
29
11
19
4
3
24
8

> <PUBCHEM_MMFF94_PARTIAL_CHARGES>
42
1 1.33
10 0.44
11 0.36
12 -0.14
13 0.54
14 -0.15
15 -0.15
16 0.09
17 0.05
18 -0.15
19 -0.15
2 -0.57
20 0.08
21 -0.15
22 -0.15
23 0.11
24 -0.15
25 -0.15
26 -0.05
27 -0.3
28 0.14
29 0.28
3 -0.65
33 0.37
34 0.42
35 0.15
36 0.15
37 0.15
38 0.15
39 0.15
4 -0.65
40 0.15
41 0.15
45 0.15
46 0.15
47 0.15
48 0.27
5 -0.36
6 -0.73
7 -0.91
8 0.3
9 -0.71

> <PUBCHEM_EFFECTIVE_ROTOR_COUNT>
9

> <PUBCHEM_PHARMACOPHORE_FEATURES>
11
1 2 acceptor
1 3 acceptor
1 4 acceptor
1 5 acceptor
1 6 donor
1 7 donor
1 8 donor
1 9 acceptor
5 8 9 26 27 28 rings
6 12 14 15 21 22 25 rings
6 16 17 18 19 20 24 rings

> <PUBCHEM_HEAVY_ATOM_COUNT>
29

> <PUBCHEM_ATOM_DEF_STEREO_COUNT>
1

> <PUBCHEM_ATOM_UDEF_STEREO_COUNT>
0

> <PUBCHEM_BOND_DEF_STEREO_COUNT>
0

> <PUBCHEM_BOND_UDEF_STEREO_COUNT>
0

> <PUBCHEM_ISOTOPIC_ATOM_COUNT>
0

> <PUBCHEM_COMPONENT_COUNT>
1

> <PUBCHEM_CACTVS_TAUTO_COUNT>
9

> <PUBCHEM_CONFORMER_ID>
0712A71300000006

> <PUBCHEM_MMFF94_ENERGY>
75.4716

> <PUBCHEM_FEATURE_SELFOVERLAP>
55.841

> <PUBCHEM_SHAPE_FINGERPRINT>
10165383 225 18267871769267627300
10319926 262 18261945267615978297
11545043 162 18334293128518342493
12342043 65 18261674783613526678
12403259 415 18412826893652592829
12507560 40 18410571803603808581
12596602 18 17023172886175375001
12616971 3 16988841687706301277
13533116 47 18413392055023483058
13540713 5 17130408293875791054
13673619 4 18335707109462426526
13685833 64 18334018280718627406
13782708 43 18409167697143102351
13955234 65 18342452690819285584
14849402 71 18130508634631530256
14950920 106 18131074835690097507
15131766 46 17558256898739021089
15238133 3 16128381484126304522
15475509 35 17968085405479867010
17844677 252 18411141324857244565
18222031 100 16370725941478870637
21033648 29 18340195367409021809
21049683 271 18408892828722697388
21130935 74 18339368556530252091
21267235 1 18041007232536324151
21304303 94 14707207696017687250
21344244 78 17561080277089351666
21792934 111 18410571782772530473
21792938 703 15502383331204015112
21987483 16 18056755666910591671
23559900 14 18334008354964628820
249057 25 16558454358172817061
3004659 81 16298390197148980455
3178227 256 18343868801508439902
5104073 3 18409729543390090761
58260988 587 18265339589688408856
5912855 24 17842828086733521191
8863177 126 18335987548930434650
9962374 69 18342447171174991206

> <PUBCHEM_SHAPE_MULTIPOLES>
557.25
19.18
3.54
1.57
12.66
0.76
-0.47
-10.8
-4.75
-6.62
-0.58
0.27
0.77
3.52

> <PUBCHEM_SHAPE_SELFOVERLAP>
1180.954

> <PUBCHEM_SHAPE_VOLUME>
313.9

> <PUBCHEM_COORDINATE_TYPE>
2
5
10

$$$$
118663067
  -OEChem-05102415143D

 55 58  0     1  0  0  0  0  0999 V2000
   -3.7640   -3.0309    0.6813 S   0  0  0  0  0  0  0  0  0  0  0  0
   -5.2047   -2.8666    0.6859 O   0  0  0  0  0  0  0  0  0  0  0  0
   -3.1265   -4.0456    1.4978 O   0  0  0  0  0  0  0  0  0  0  0  0
   -0.5314    1.9982    2.2121 O   0  0  0  0  0  0  0  0  0  0  0  0
    3.0864   -1.7125   -0.6301 O   0  0  0  0  0  0  0  0  0  0  0  0
   -3.0076   -1.5239    0.9941 N   0  0  0  0  0  0  0  0  0  0  0  0
   -1.2250    0.6633    0.4478 N   0  0  0  0  0  0  0  0  0  0  0  0
    7.1858    0.2810   -0.8041 N   0  0  0  0  0  0  0  0  0  0  0  0
    7.2559   -0.8486   -0.0794 N   0  0  0  0  0  0  0  0  0  0  0  0
   -3.3148   -3.4609   -1.0685 C   0  0  0  0  0  0  0  0  0  0  0  0
   -1.9378   -4.0408   -1.1825 C   0  0  0  0  0  0  0  0  0  0  0  0
   -3.1429   -4.9356   -1.2716 C   0  0  0  0  0  0  0  0  0  0  0  0
   -3.4548   -0.3521    0.2164 C   0  0  0  0  0  0  0  0  0  0  0  0
   -2.6445    0.8854    0.6183 C   0  0  2  0  0  0  0  0  0  0  0  0
   -3.0870    2.1157   -0.1461 C   0  0  0  0  0  0  0  0  0  0  0  0
   -2.4841    2.4351   -1.3628 C   0  0  0  0  0  0  0  0  0  0  0  0
   -4.0972    2.9295    0.3667 C   0  0  0  0  0  0  0  0  0  0  0  0
   -0.2788    1.2485    1.2727 C   0  0  0  0  0  0  0  0  0  0  0  0
    1.1384    0.9416    0.9498 C   0  0  0  0  0  0  0  0  0  0  0  0
   -2.8917    3.5683   -2.0670 C   0  0  0  0  0  0  0  0  0  0  0  0
   -4.5048    4.0628   -0.3374 C   0  0  0  0  0  0  0  0  0  0  0  0
   -3.9021    4.3819   -1.5543 C   0  0  0  0  0  0  0  0  0  0  0  0
    1.4646   -0.2514    0.3046 C   0  0  0  0  0  0  0  0  0  0  0  0
    2.1429    1.8476    1.2904 C   0  0  0  0  0  0  0  0  0  0  0  0
    3.7997    0.3677    0.3405 C   0  0  0  0  0  0  0  0  0  0  0  0
    2.7952   -0.5383   -0.0001 C   0  0  0  0  0  0  0  0  0  0  0  0
    3.4735    1.5605    0.9859 C   0  0  0  0  0  0  0  0  0  0  0  0
    5.1776    0.0925    0.0342 C   0  0  0  0  0  0  0  0  0  0  0  0
    5.9624    0.8832   -0.7692 C   0  0  0  0  0  0  0  0  0  0  0  0
    6.0262   -0.9586    0.4303 C   0  0  0  0  0  0  0  0  0  0  0  0
    3.0909   -1.6971   -2.0556 C   0  0  0  0  0  0  0  0  0  0  0  0
   -3.7091   -2.8525   -1.8689 H   0  0  0  0  0  0  0  0  0  0  0  0
   -1.3889   -3.8478   -2.0974 H   0  0  0  0  0  0  0  0  0  0  0  0
   -1.3046   -4.1196   -0.3087 H   0  0  0  0  0  0  0  0  0  0  0  0
   -3.3947   -5.3380   -2.2465 H   0  0  0  0  0  0  0  0  0  0  0  0
   -3.3278   -5.6277   -0.4610 H   0  0  0  0  0  0  0  0  0  0  0  0
   -1.9842   -1.5712    1.0921 H   0  0  0  0  0  0  0  0  0  0  0  0
   -4.5231   -0.1837    0.3915 H   0  0  0  0  0  0  0  0  0  0  0  0
   -3.3090   -0.5593   -0.8503 H   0  0  0  0  0  0  0  0  0  0  0  0
   -2.8073    1.0702    1.6890 H   0  0  0  0  0  0  0  0  0  0  0  0
   -0.9373    0.1338   -0.3687 H   0  0  0  0  0  0  0  0  0  0  0  0
   -1.7067    1.8131   -1.7972 H   0  0  0  0  0  0  0  0  0  0  0  0
   -4.5759    2.6905    1.3126 H   0  0  0  0  0  0  0  0  0  0  0  0
   -2.4253    3.8151   -3.0163 H   0  0  0  0  0  0  0  0  0  0  0  0
   -5.2918    4.6961    0.0613 H   0  0  0  0  0  0  0  0  0  0  0  0
   -4.2202    5.2635   -2.1031 H   0  0  0  0  0  0  0  0  0  0  0  0
    0.7113   -0.9935    0.0541 H   0  0  0  0  0  0  0  0  0  0  0  0
    1.9084    2.7840    1.7897 H   0  0  0  0  0  0  0  0  0  0  0  0
    4.2409    2.2796    1.2635 H   0  0  0  0  0  0  0  0  0  0  0  0
    5.7714    1.7990   -1.3115 H   0  0  0  0  0  0  0  0  0  0  0  0
    5.8039   -1.8017    1.0694 H   0  0  0  0  0  0  0  0  0  0  0  0
    8.0141    0.5848   -1.3005 H   0  0  0  0  0  0  0  0  0  0  0  0
    3.3903   -2.6883   -2.4072 H   0  0  0  0  0  0  0  0  0  0  0  0
    3.8036   -0.9610   -2.4399 H   0  0  0  0  0  0  0  0  0  0  0  0
    2.0878   -1.4803   -2.4366 H   0  0  0  0  0  0  0  0  0  0  0  0
  1  2  2  0  0  0  0
  1  3  2  0  0  0  0
  1  6  1  0  0  0  0
  1 10  1  0  0  0  0
  4 18  2  0  0  0  0
  5 26  1  0  0  0  0
  5 31  1  0  0  0  0
  6 13  1  0  0  0  0
  6 37  1  0  0  0  0
  7 14  1  0  0  0  0
  7 18  1  0  0  0  0
  7 41  1  0  0  0  0
  8  9  1  0  0  0  0
  8 29  1  0  0  0  0
  8 52  1  0  0  0  0
  9 30  2  0  0  0  0
 10 11  1  0  0  0  0
 10 12  1  0  0  0  0
 10 32  1  0  0  0  0
 11 12  1  0  0  0  0
 11 33  1  0  0  0  0
 11 34  1  0  0  0  0
 12 35  1  0  0  0  0
 12 36  1  0  0  0  0
 13 14  1  0  0  0  0
 13 38  1  0  0  0  0
 13 39  1  0  0  0  0
 14 15  1  0  0  0  0
 14 40  1  0  0  0  0
 15 16  2  0  0  0  0
 15 17  1  0  0  0  0
 16 20  1  0  0  0  0
 16 42  1  0  0  0  0
 17 21  2  0  0  0  0
 17 43  1  0  0  0  0
 18 19  1  0  0  0  0
 19 23  2  0  0  0  0
 19 24  1  0  0  0  0
 20 22  2  0  0  0  0
 20 44  1  0  0  0  0
 21 22  1  0  0  0  0
 21 45  1  0  0  0  0
 22 46  1  0  0  0  0
 23 26  1  0  0  0  0
 23 47  1  0  0  0  0
 24 27  2  0  0  0  0
 24 48  1  0  0  0  0
 25 26  2  0  0  0  0
 25 27  1  0  0  0  0
 25 28  1  0  0  0  0
 27 49  1  0  0  0  0
 28 29  2  0  0  0  0
 28 30  1  0  0  0  0
 29 50  1  0  0  0  0
 30 51  1  0  0  0  0
 31 53  1  0  0  0  0
 31 54  1  0  0  0  0
 31 55  1  0  0  0  0
M  END
> <PUBCHEM_COMPOUND_CID>
118663067

> <PUBCHEM_CONFORMER_RMSD>
1

> <PUBCHEM_CONFORMER_DIVERSEORDER>
1
22
25
62
57
35
46
30
12
53
56
8
60
33
41
52
55
20
50
23
18
61
32
43
59
6
37
29
3
38
27
47
44
11
17
58
16
48
39
10
54
7
28
42
40
51
31
36
49
26
4
34
45
14
13
9
24
19
21
5
15
2

> <PUBCHEM_MMFF94_PARTIAL_CHARGES>
49
1 1.41
10 -0.08
11 -0.2
12 -0.2
13 0.36
14 0.44
15 -0.14
16 -0.15
17 -0.15
18 0.54
19 0.09
2 -0.65
20 -0.15
21 -0.15
22 -0.15
23 -0.15
24 -0.15
25 0.05
26 0.08
27 -0.15
28 -0.05
29 -0.3
3 -0.65
30 0.14
31 0.28
32 0.1
33 0.1
34 0.1
35 0.1
36 0.1
37 0.42
4 -0.57
41 0.37
42 0.15
43 0.15
44 0.15
45 0.15
46 0.15
47 0.15
48 0.15
49 0.15
5 -0.36
50 0.15
51 0.15
52 0.27
6 -0.91
7 -0.73
8 0.3
9 -0.71

> <PUBCHEM_EFFECTIVE_ROTOR_COUNT>
10.6

> <PUBCHEM_PHARMACOPHORE_FEATURES>
11
1 2 acceptor
1 3 acceptor
1 4 acceptor
1 5 acceptor
1 6 donor
1 7 donor
1 8 donor
1 9 acceptor
5 8 9 28 29 30 rings
6 15 16 17 20 21 22 rings
6 19 23 24 25 26 27 rings

> <PUBCHEM_HEAVY_ATOM_COUNT>
31

> <PUBCHEM_ATOM_DEF_STEREO_COUNT>
1

> <PUBCHEM_ATOM_UDEF_STEREO_COUNT>
0

> <PUBCHEM_BOND_DEF_STEREO_COUNT>
0

> <PUBCHEM_BOND_UDEF_STEREO_COUNT>
0

> <PUBCHEM_ISOTOPIC_ATOM_COUNT>
0

> <PUBCHEM_COMPONENT_COUNT>
1

> <PUBCHEM_CACTVS_TAUTO_COUNT>
9

> <PUBCHEM_CONFORMER_ID>
0712A79B00000001

> <PUBCHEM_MMFF94_ENERGY>
85.5989

> <PUBCHEM_FEATURE_SELFOVERLAP>
55.843

> <PUBCHEM_SHAPE_FINGERPRINT>
10165383 225 18265617577104716049
10290309 65 18199478679026791031
10319688 140 16749040697360494691
10675989 125 17403459572324414373
10940486 97 18335145288679806964
11477941 20 17895194467158321684
11796584 16 18338234848340541266
11991303 11 18335417920165159557
13540713 4 17987782142610620392
13690498 29 18337110163049574160
14202776 33 18261967344175096372
14856354 85 16444216143450040041
15230672 131 18118120269623161978
15361156 5 18190190155213217763
15463212 79 17895470328517414849
15775530 1 18055044787714395017
16993438 75 18412541007412322159
21756936 100 16588314821444944992
22393880 68 18408880724966683040
24893989 43 15603897005064230999
25223398 141 18411698816228810820
3298306 158 17905889176549166311
4058900 60 17980762632281569645
44062 13 18411134740619489424
4409770 3 18412821387562528551
484985 159 18059867155349981299
508706 21 18411980256318372887
513202 73 18337394936809666203
531348 171 18188208693826666674
6700243 42 17982207583891661988
7399639 24 17981593085461763241

> <PUBCHEM_SHAPE_MULTIPOLES>
598.41
14.62
6.45
1.67
25.9
4.21
0.29
-0.04
2.49
-15.75
2.6
-0.72
-0.29
2.33

> <PUBCHEM_SHAPE_SELFOVERLAP>
1269.79

> <PUBCHEM_SHAPE_VOLUME>
337.1

> <PUBCHEM_COORDINATE_TYPE>
2
5
10

$$$$
118662895
  -OEChem-05102415143D

 43 45  0     1  0  0  0  0  0999 V2000
    4.9416    1.0855   -1.7467 F   0  0  0  0  0  0  0  0  0  0  0  0
    3.1737   -1.0168    2.1256 F   0  0  0  0  0  0  0  0  0  0  0  0
   -3.6465   -1.4604    1.7240 F   0  0  0  0  0  0  0  0  0  0  0  0
   -4.1727   -2.0933   -0.2825 F   0  0  0  0  0  0  0  0  0  0  0  0
   -2.3163   -2.7782    0.6187 F   0  0  0  0  0  0  0  0  0  0  0  0
    3.1401   -3.1352   -1.6193 O   0  0  0  0  0  0  0  0  0  0  0  0
    1.5999    1.0095   -2.1114 O   0  0  0  0  0  0  0  0  0  0  0  0
    1.8011   -0.6622   -0.5172 N   0  0  0  0  0  0  0  0  0  0  0  0
   -6.2651    1.3292    1.1202 N   0  0  0  0  0  0  0  0  0  0  0  0
   -6.7140    0.9524   -0.0893 N   0  0  0  0  0  0  0  0  0  0  0  0
    3.2130   -0.9059   -0.7070 C   0  0  1  0  0  0  0  0  0  0  0  0
    4.0385    0.0122    0.1684 C   0  0  0  0  0  0  0  0  0  0  0  0
    3.5418   -2.3837   -0.4784 C   0  0  0  0  0  0  0  0  0  0  0  0
   -0.3339    0.4353   -0.9161 C   0  0  0  0  0  0  0  0  0  0  0  0
   -3.0393    0.7120   -0.2935 C   0  0  0  0  0  0  0  0  0  0  0  0
   -2.3949   -0.5063   -0.0775 C   0  0  0  0  0  0  0  0  0  0  0  0
    1.0765    0.2919   -1.2408 C   0  0  0  0  0  0  0  0  0  0  0  0
   -1.0422   -0.6445   -0.3887 C   0  0  0  0  0  0  0  0  0  0  0  0
   -0.9783    1.6535   -1.1321 C   0  0  0  0  0  0  0  0  0  0  0  0
   -2.3310    1.7917   -0.8211 C   0  0  0  0  0  0  0  0  0  0  0  0
    4.8689    0.9701   -0.4134 C   0  0  0  0  0  0  0  0  0  0  0  0
    3.9692   -0.0999    1.5572 C   0  0  0  0  0  0  0  0  0  0  0  0
   -4.4335    0.8805    0.0181 C   0  0  0  0  0  0  0  0  0  0  0  0
   -3.1213   -1.6861    0.4853 C   0  0  0  0  0  0  0  0  0  0  0  0
    5.6302    1.8159    0.3933 C   0  0  0  0  0  0  0  0  0  0  0  0
    4.7305    0.7460    2.3639 C   0  0  0  0  0  0  0  0  0  0  0  0
    5.5608    1.7041    1.7820 C   0  0  0  0  0  0  0  0  0  0  0  0
   -4.9064    1.3034    1.2363 C   0  0  0  0  0  0  0  0  0  0  0  0
   -5.5906    0.6794   -0.7581 C   0  0  0  0  0  0  0  0  0  0  0  0
    3.4278   -0.6812   -1.7597 H   0  0  0  0  0  0  0  0  0  0  0  0
    1.3601   -1.1372    0.2637 H   0  0  0  0  0  0  0  0  0  0  0  0
    4.6211   -2.5305   -0.3597 H   0  0  0  0  0  0  0  0  0  0  0  0
    3.0350   -2.7938    0.4016 H   0  0  0  0  0  0  0  0  0  0  0  0
   -0.5633   -1.6086   -0.2456 H   0  0  0  0  0  0  0  0  0  0  0  0
   -0.4434    2.5083   -1.5378 H   0  0  0  0  0  0  0  0  0  0  0  0
   -2.8167    2.7490   -0.9959 H   0  0  0  0  0  0  0  0  0  0  0  0
    6.2765    2.5616   -0.0600 H   0  0  0  0  0  0  0  0  0  0  0  0
    4.6763    0.6587    3.4450 H   0  0  0  0  0  0  0  0  0  0  0  0
    6.1533    2.3627    2.4102 H   0  0  0  0  0  0  0  0  0  0  0  0
   -4.4146    1.5827    2.1579 H   0  0  0  0  0  0  0  0  0  0  0  0
   -5.6654    0.3449   -1.7833 H   0  0  0  0  0  0  0  0  0  0  0  0
    3.3707   -4.0636   -1.4445 H   0  0  0  0  0  0  0  0  0  0  0  0
   -6.9441    1.5922    1.8235 H   0  0  0  0  0  0  0  0  0  0  0  0
  1 21  1  0  0  0  0
  2 22  1  0  0  0  0
  3 24  1  0  0  0  0
  4 24  1  0  0  0  0
  5 24  1  0  0  0  0
  6 13  1  0  0  0  0
  6 42  1  0  0  0  0
  7 17  2  0  0  0  0
  8 11  1  0  0  0  0
  8 17  1  0  0  0  0
  8 31  1  0  0  0  0
  9 10  1  0  0  0  0
  9 28  1  0  0  0  0
  9 43  1  0  0  0  0
 10 29  2  0  0  0  0
 11 12  1  0  0  0  0
 11 13  1  0  0  0  0
 11 30  1  0  0  0  0
 12 21  2  0  0  0  0
 12 22  1  0  0  0  0
 13 32  1  0  0  0  0
 13 33  1  0  0  0  0
 14 17  1  0  0  0  0
 14 18  2  0  0  0  0
 14 19  1  0  0  0  0
 15 16  2  0  0  0  0
 15 20  1  0  0  0  0
 15 23  1  0  0  0  0
 16 18  1  0  0  0  0
 16 24  1  0  0  0  0
 18 34  1  0  0  0  0
 19 20  2  0  0  0  0
 19 35  1  0  0  0  0
 20 36  1  0  0  0  0
 21 25  1  0  0  0  0
 22 26  2  0  0  0  0
 23 28  2  0  0  0  0
 23 29  1  0  0  0  0
 25 27  2  0  0  0  0
 25 37  1  0  0  0  0
 26 27  1  0  0  0  0
 26 38  1  0  0  0  0
 27 39  1  0  0  0  0
 28 40  1  0  0  0  0
 29 41  1  0  0  0  0
M  END
> <PUBCHEM_COMPOUND_CID>
118662895

> <PUBCHEM_CONFORMER_RMSD>
0.8

> <PUBCHEM_CONFORMER_DIVERSEORDER>
1
11
10
33
19
27
2
29
28
16
7
15
32
17
37
30
6
20
35
31
9
14
24
23
25
12
36
21
5
34
8
3
26
22
13
18
4

> <PUBCHEM_MMFF94_PARTIAL_CHARGES>
40
1 -0.19
10 -0.71
11 0.44
12 -0.14
13 0.28
14 0.09
15 0.05
16 -0.14
17 0.54
18 -0.15
19 -0.15
2 -0.19
20 -0.15
21 0.19
22 0.19
23 -0.05
24 1.16
25 -0.15
26 -0.15
27 -0.15
28 -0.3
29 0.14
3 -0.34
31 0.37
34 0.15
35 0.15
36 0.15
37 0.15
38 0.15
39 0.15
4 -0.34
40 0.15
41 0.15
42 0.4
43 0.27
5 -0.34
6 -0.68
7 -0.57
8 -0.73
9 0.3

> <PUBCHEM_EFFECTIVE_ROTOR_COUNT>
7

> <PUBCHEM_PHARMACOPHORE_FEATURES>
9
1 10 acceptor
1 6 acceptor
1 6 donor
1 7 acceptor
1 8 donor
1 9 donor
5 9 10 23 28 29 rings
6 12 21 22 25 26 27 rings
6 14 15 16 18 19 20 rings

> <PUBCHEM_HEAVY_ATOM_COUNT>
29

> <PUBCHEM_ATOM_DEF_STEREO_COUNT>
1

> <PUBCHEM_ATOM_UDEF_STEREO_COUNT>
0

> <PUBCHEM_BOND_DEF_STEREO_COUNT>
0

> <PUBCHEM_BOND_UDEF_STEREO_COUNT>
0

> <PUBCHEM_ISOTOPIC_ATOM_COUNT>
0

> <PUBCHEM_COMPONENT_COUNT>
1

> <PUBCHEM_CACTVS_TAUTO_COUNT>
9

> <PUBCHEM_CONFORMER_ID>
0712A6EF00000001

> <PUBCHEM_MMFF94_ENERGY>
62.5324

> <PUBCHEM_FEATURE_SELFOVERLAP>
45.673

> <PUBCHEM_SHAPE_FINGERPRINT>
10 15 17822014224245148621
10165383 225 18272089410146068236
11828532 37 10519399949511192453
11991303 11 13686284799693256133
12553582 1 17240485779846755230
12616971 3 16877657993784203252
12633257 1 18334565871884803144
13533116 47 18129947754213853511
13583140 156 17560797775103935479
13955234 65 18200590286089100118
14251751 18 12540693725695550288
14341114 328 18040148544199039680
14528608 73 15626218026567108768
15419008 42 14636244059935837171
15537594 2 17022908938775030778
15575132 122 14549025377334487897
17349148 13 15285355111721299296
17980427 23 18336260253689045885
1813 80 16588033398202137591
19377110 9 17458061595012035432
1979834 28 18410292497923179548
20511986 3 17677314121626038357
20554085 129 18342168943857583921
21033648 29 17846491582499362880
21130935 74 18342184315677775035
21424621 283 17987809497610652449
21623969 137 15430035452578449168
21859007 373 17313930919479478597
22061861 79 11674876697412453169
22122407 14 17060624399241508337
221357 26 9367344838364927318
23559900 14 18338528456104264062
3004659 81 14201404841779584912
3383291 50 18041286564852304363
3680242 22 17458339741251519938
394071 54 18335707147748477372
4058900 60 14476696178350114533
474 4 15052014563356551828
5104073 3 18410295795862191451
6442390 28 18128815421337655550
6823239 73 18262529104723399574

> <PUBCHEM_SHAPE_MULTIPOLES>
533.76
15.73
2.43
1.82
5.71
1.77
0.42
-6.55
4.86
-0.87
-0.03
-1.84
-0.29
1.34

> <PUBCHEM_SHAPE_SELFOVERLAP>
1172.28

> <PUBCHEM_SHAPE_VOLUME>
288.3

> <PUBCHEM_COORDINATE_TYPE>
2
5
10

$$$$
118663084
  -OEChem-05102415143D

 40 42  0     1  0  0  0  0  0999 V2000
   -3.7745    2.2674   -1.4574 Cl  0  0  0  0  0  0  0  0  0  0  0  0
    4.4102    0.6692   -1.9720 F   0  0  0  0  0  0  0  0  0  0  0  0
    2.9772   -0.5756    2.3796 F   0  0  0  0  0  0  0  0  0  0  0  0
    3.0427   -3.5369   -0.7413 O   0  0  0  0  0  0  0  0  0  0  0  0
    1.0832    0.2083   -2.1298 O   0  0  0  0  0  0  0  0  0  0  0  0
    1.4976   -0.9998   -0.1943 N   0  0  0  0  0  0  0  0  0  0  0  0
   -6.6402    0.0907    1.5583 N   0  0  0  0  0  0  0  0  0  0  0  0
   -7.1173    0.0482    0.3027 N   0  0  0  0  0  0  0  0  0  0  0  0
    2.9205   -1.1551   -0.3950 C   0  0  1  0  0  0  0  0  0  0  0  0
    3.6762    0.0187    0.1897 C   0  0  0  0  0  0  0  0  0  0  0  0
    3.4015   -2.4973    0.1632 C   0  0  0  0  0  0  0  0  0  0  0  0
    0.6602   -0.3194   -1.0860 C   0  0  0  0  0  0  0  0  0  0  0  0
   -0.7471   -0.2280   -0.7305 C   0  0  0  0  0  0  0  0  0  0  0  0
    4.3893    0.8760   -0.6481 C   0  0  0  0  0  0  0  0  0  0  0  0
    3.6600    0.2425    1.5664 C   0  0  0  0  0  0  0  0  0  0  0  0
   -3.4457   -0.0544   -0.0444 C   0  0  0  0  0  0  0  0  0  0  0  0
   -1.5180    0.8371   -1.1962 C   0  0  0  0  0  0  0  0  0  0  0  0
   -1.3254   -1.2062    0.0785 C   0  0  0  0  0  0  0  0  0  0  0  0
   -2.8673    0.9241   -0.8532 C   0  0  0  0  0  0  0  0  0  0  0  0
   -2.6746   -1.1194    0.4217 C   0  0  0  0  0  0  0  0  0  0  0  0
    5.0863    1.9576   -0.1093 C   0  0  0  0  0  0  0  0  0  0  0  0
    4.3571    1.3240    2.1054 C   0  0  0  0  0  0  0  0  0  0  0  0
   -4.8341   -0.0048    0.3337 C   0  0  0  0  0  0  0  0  0  0  0  0
    5.0700    2.1817    1.2675 C   0  0  0  0  0  0  0  0  0  0  0  0
   -5.2785    0.0614    1.6317 C   0  0  0  0  0  0  0  0  0  0  0  0
   -6.0094   -0.0100   -0.4410 C   0  0  0  0  0  0  0  0  0  0  0  0
    3.0801   -1.1754   -1.4807 H   0  0  0  0  0  0  0  0  0  0  0  0
    4.4932   -2.5136    0.2561 H   0  0  0  0  0  0  0  0  0  0  0  0
    2.9648   -2.7242    1.1416 H   0  0  0  0  0  0  0  0  0  0  0  0
    1.1286   -1.3102    0.6987 H   0  0  0  0  0  0  0  0  0  0  0  0
   -1.0688    1.6046   -1.8229 H   0  0  0  0  0  0  0  0  0  0  0  0
   -0.7694   -2.0679    0.4364 H   0  0  0  0  0  0  0  0  0  0  0  0
   -3.1065   -1.9000    1.0440 H   0  0  0  0  0  0  0  0  0  0  0  0
    5.6413    2.6251   -0.7618 H   0  0  0  0  0  0  0  0  0  0  0  0
    4.3443    1.4982    3.1772 H   0  0  0  0  0  0  0  0  0  0  0  0
    5.6124    3.0239    1.6870 H   0  0  0  0  0  0  0  0  0  0  0  0
    3.3698   -4.3703   -0.3617 H   0  0  0  0  0  0  0  0  0  0  0  0
   -4.7666    0.0915    2.5837 H   0  0  0  0  0  0  0  0  0  0  0  0
   -6.1109   -0.0578   -1.5162 H   0  0  0  0  0  0  0  0  0  0  0  0
   -7.3029    0.1395    2.3221 H   0  0  0  0  0  0  0  0  0  0  0  0
  1 19  1  0  0  0  0
  2 14  1  0  0  0  0
  3 15  1  0  0  0  0
  4 11  1  0  0  0  0
  4 37  1  0  0  0  0
  5 12  2  0  0  0  0
  6  9  1  0  0  0  0
  6 12  1  0  0  0  0
  6 30  1  0  0  0  0
  7  8  1  0  0  0  0
  7 25  1  0  0  0  0
  7 40  1  0  0  0  0
  8 26  2  0  0  0  0
  9 10  1  0  0  0  0
  9 11  1  0  0  0  0
  9 27  1  0  0  0  0
 10 14  2  0  0  0  0
 10 15  1  0  0  0  0
 11 28  1  0  0  0  0
 11 29  1  0  0  0  0
 12 13  1  0  0  0  0
 13 17  2  0  0  0  0
 13 18  1  0  0  0  0
 14 21  1  0  0  0  0
 15 22  2  0  0  0  0
 16 19  2  0  0  0  0
 16 20  1  0  0  0  0
 16 23  1  0  0  0  0
 17 19  1  0  0  0  0
 17 31  1  0  0  0  0
 18 20  2  0  0  0  0
 18 32  1  0  0  0  0
 20 33  1  0  0  0  0
 21 24  2  0  0  0  0
 21 34  1  0  0  0  0
 22 24  1  0  0  0  0
 22 35  1  0  0  0  0
 23 25  2  0  0  0  0
 23 26  1  0  0  0  0
 24 36  1  0  0  0  0
 25 38  1  0  0  0  0
 26 39  1  0  0  0  0
M  END
> <PUBCHEM_COMPOUND_CID>
118663084

> <PUBCHEM_CONFORMER_RMSD>
0.8

> <PUBCHEM_CONFORMER_DIVERSEORDER>
1
21
16
20
3
34
33
15
30
2
11
36
17
25
5
24
35
22
31
27
14
8
7
10
28
23
32
4
18
12
26
13
19
6
9
29

> <PUBCHEM_MMFF94_PARTIAL_CHARGES>
37
1 -0.18
10 -0.14
11 0.28
12 0.54
13 0.09
14 0.19
15 0.19
16 0.05
17 -0.15
18 -0.15
19 0.18
2 -0.19
20 -0.15
21 -0.15
22 -0.15
23 -0.05
24 -0.15
25 -0.3
26 0.14
3 -0.19
30 0.37
31 0.15
32 0.15
33 0.15
34 0.15
35 0.15
36 0.15
37 0.4
38 0.15
39 0.15
4 -0.68
40 0.27
5 -0.57
6 -0.73
7 0.3
8 -0.71
9 0.44

> <PUBCHEM_EFFECTIVE_ROTOR_COUNT>
6

> <PUBCHEM_PHARMACOPHORE_FEATURES>
9
1 4 acceptor
1 4 donor
1 5 acceptor
1 6 donor
1 7 donor
1 8 acceptor
5 7 8 23 25 26 rings
6 10 14 15 21 22 24 rings
6 13 16 17 18 19 20 rings

> <PUBCHEM_HEAVY_ATOM_COUNT>
26

> <PUBCHEM_ATOM_DEF_STEREO_COUNT>
1

> <PUBCHEM_ATOM_UDEF_STEREO_COUNT>
0

> <PUBCHEM_BOND_DEF_STEREO_COUNT>
0

> <PUBCHEM_BOND_UDEF_STEREO_COUNT>
0

> <PUBCHEM_ISOTOPIC_ATOM_COUNT>
0

> <PUBCHEM_COMPONENT_COUNT>
1

> <PUBCHEM_CACTVS_TAUTO_COUNT>
9

> <PUBCHEM_CONFORMER_ID>
0712A7AC00000001

> <PUBCHEM_MMFF94_ENERGY>
59.5533

> <PUBCHEM_FEATURE_SELFOVERLAP>
45.673

> <PUBCHEM_SHAPE_FINGERPRINT>
10 15 17967812799083146620
10165383 225 18411987992477359716
10319926 262 17750499703399681760
10554248 39 16987434205918168245
10670039 82 14476696199080990323
11135609 201 18270108149795142632
11595378 159 17603856793499252460
11991303 11 13470400089942298165
12403259 415 18338516339943181173
12596602 18 16588022424666638921
12616971 3 16630234823334424655
12730499 353 18412548712847232602
12892183 10 17749660809944367021
13533116 47 18342463586534500483
13673619 4 18191595142649596158
13955234 65 18341048528439861898
14211702 104 13407090218830440753
14251740 57 16081360809561885506
14528608 73 16056879152192574329
146900 427 18060699493930995995
15183329 4 12535357813167095617
15188451 53 14490457699567896072
15210252 30 17202759436270917584
15419008 42 14492124503994545843
15510800 12 11314298400535686832
15575132 122 16559039268515686297
16992610 120 15503524702416235396
17844677 252 18339646616400735709
17857418 61 15068622699621667953
1813 80 15357700768778083135
19315092 285 13119095129635549924
19377110 9 17312821601808089065
1979834 28 18334015003800537884
20567600 234 18409445929640667265
21033648 29 18336255761169259613
21049683 271 18264779758097730774
21130935 74 18337680729040990299
21315764 119 12679194816121992921
21792934 111 18188483580603470533
21859007 373 16661187184464686045
221357 26 15410905058646749136
22149856 69 18189074044575969203
2215653 11 9943808893561556865
23559900 14 18189612735868690070
239999 70 17531253842216141422
3004659 81 13551192164957269378
394071 54 18336270136150823981
4058900 60 14404646285378036575
5104073 3 18042402443935312753
542803 24 17203611488777505805
5718773 13 11314843805937957728
57527585 21 16476533299052657612
59682541 52 10375881753262401897
6823239 73 17895199836146717134
7808743 9 18050279569213412964
960060 61 12319457731665174112

> <PUBCHEM_SHAPE_MULTIPOLES>
495.71
16.01
2.21
1.84
15.38
1
0.42
-4.87
5.75
-3.26
-0.39
-0.92
-0.53
1.59

> <PUBCHEM_SHAPE_SELFOVERLAP>
1075.148

> <PUBCHEM_SHAPE_VOLUME>
271.9

> <PUBCHEM_COORDINATE_TYPE>
2
5
10

$$$$
131636096
  -OEChem-05102415143D

 46 48  0     1  0  0  0  0  0999 V2000
    6.4627   -2.4220   -1.5159 F   0  0  0  0  0  0  0  0  0  0  0  0
   -2.3640   -2.9340    1.0973 O   0  0  0  0  0  0  0  0  0  0  0  0
    1.3631    0.2074    2.1609 O   0  0  0  0  0  0  0  0  0  0  0  0
    1.8671    1.5089    0.3092 N   0  0  0  0  0  0  0  0  0  0  0  0
   -6.0902   -0.2035   -1.9561 N   0  0  0  0  0  0  0  0  0  0  0  0
   -6.6383    0.4382   -0.9102 N   0  0  0  0  0  0  0  0  0  0  0  0
   -2.4543   -0.5993    0.5746 C   0  0  0  0  0  0  0  0  0  0  0  0
    3.2647    1.7077    0.6191 C   0  0  1  0  0  0  0  0  0  0  0  0
   -3.0127    0.3899   -0.2350 C   0  0  0  0  0  0  0  0  0  0  0  0
   -3.2364   -1.8051    0.9881 C   0  0  2  0  0  0  0  0  0  0  0  0
   -0.3781    0.6341    0.6495 C   0  0  0  0  0  0  0  0  0  0  0  0
   -1.1369   -0.4773    1.0168 C   0  0  0  0  0  0  0  0  0  0  0  0
    4.1227    0.6004    0.0461 C   0  0  0  0  0  0  0  0  0  0  0  0
   -2.2537    1.5011   -0.6025 C   0  0  0  0  0  0  0  0  0  0  0  0
    0.9954    0.7622    1.1103 C   0  0  0  0  0  0  0  0  0  0  0  0
   -0.9365    1.6233   -0.1600 C   0  0  0  0  0  0  0  0  0  0  0  0
   -4.3684    0.2875   -0.7052 C   0  0  0  0  0  0  0  0  0  0  0  0
    3.7127    3.0937    0.1600 C   0  0  0  0  0  0  0  0  0  0  0  0
   -3.9619   -1.6057    2.3206 C   0  0  0  0  0  0  0  0  0  0  0  0
    3.7807    0.0119   -1.1715 C   0  0  0  0  0  0  0  0  0  0  0  0
    5.2554    0.1679    0.7359 C   0  0  0  0  0  0  0  0  0  0  0  0
   -4.7333   -0.3202   -1.8817 C   0  0  0  0  0  0  0  0  0  0  0  0
   -5.5816    0.7356   -0.1494 C   0  0  0  0  0  0  0  0  0  0  0  0
    4.5716   -1.0087   -1.6995 C   0  0  0  0  0  0  0  0  0  0  0  0
    6.0461   -0.8529    0.2081 C   0  0  0  0  0  0  0  0  0  0  0  0
    5.7042   -1.4411   -1.0096 C   0  0  0  0  0  0  0  0  0  0  0  0
    3.3530    1.6735    1.7129 H   0  0  0  0  0  0  0  0  0  0  0  0
   -3.9640   -2.0868    0.2213 H   0  0  0  0  0  0  0  0  0  0  0  0
   -0.6963   -1.2381    1.6565 H   0  0  0  0  0  0  0  0  0  0  0  0
    1.5463    1.8592   -0.5877 H   0  0  0  0  0  0  0  0  0  0  0  0
   -2.6750    2.2853   -1.2275 H   0  0  0  0  0  0  0  0  0  0  0  0
   -0.3918    2.5190   -0.4438 H   0  0  0  0  0  0  0  0  0  0  0  0
    3.6302    3.2005   -0.9279 H   0  0  0  0  0  0  0  0  0  0  0  0
    4.7558    3.2833    0.4353 H   0  0  0  0  0  0  0  0  0  0  0  0
    3.0930    3.8736    0.6161 H   0  0  0  0  0  0  0  0  0  0  0  0
   -3.2472   -1.4365    3.1344 H   0  0  0  0  0  0  0  0  0  0  0  0
   -4.5283   -2.5054    2.5844 H   0  0  0  0  0  0  0  0  0  0  0  0
   -4.6518   -0.7578    2.2899 H   0  0  0  0  0  0  0  0  0  0  0  0
    2.9137    0.3369   -1.7396 H   0  0  0  0  0  0  0  0  0  0  0  0
    5.5336    0.6192    1.6846 H   0  0  0  0  0  0  0  0  0  0  0  0
   -4.1673   -0.8158   -2.6583 H   0  0  0  0  0  0  0  0  0  0  0  0
   -5.7434    1.2673    0.7778 H   0  0  0  0  0  0  0  0  0  0  0  0
   -2.9047   -3.6993    1.3575 H   0  0  0  0  0  0  0  0  0  0  0  0
    4.3077   -1.4650   -2.6490 H   0  0  0  0  0  0  0  0  0  0  0  0
    6.9280   -1.1898    0.7448 H   0  0  0  0  0  0  0  0  0  0  0  0
   -6.7035   -0.5374   -2.6891 H   0  0  0  0  0  0  0  0  0  0  0  0
  1 26  1  0  0  0  0
  2 10  1  0  0  0  0
  2 43  1  0  0  0  0
  3 15  2  0  0  0  0
  4  8  1  0  0  0  0
  4 15  1  0  0  0  0
  4 30  1  0  0  0  0
  5  6  1  0  0  0  0
  5 22  1  0  0  0  0
  5 46  1  0  0  0  0
  6 23  2  0  0  0  0
  7  9  2  0  0  0  0
  7 10  1  0  0  0  0
  7 12  1  0  0  0  0
  8 13  1  0  0  0  0
  8 18  1  0  0  0  0
  8 27  1  0  0  0  0
  9 14  1  0  0  0  0
  9 17  1  0  0  0  0
 10 19  1  0  0  0  0
 10 28  1  0  0  0  0
 11 12  2  0  0  0  0
 11 15  1  0  0  0  0
 11 16  1  0  0  0  0
 12 29  1  0  0  0  0
 13 20  2  0  0  0  0
 13 21  1  0  0  0  0
 14 16  2  0  0  0  0
 14 31  1  0  0  0  0
 16 32  1  0  0  0  0
 17 22  2  0  0  0  0
 17 23  1  0  0  0  0
 18 33  1  0  0  0  0
 18 34  1  0  0  0  0
 18 35  1  0  0  0  0
 19 36  1  0  0  0  0
 19 37  1  0  0  0  0
 19 38  1  0  0  0  0
 20 24  1  0  0  0  0
 20 39  1  0  0  0  0
 21 25  2  0  0  0  0
 21 40  1  0  0  0  0
 22 41  1  0  0  0  0
 23 42  1  0  0  0  0
 24 26  2  0  0  0  0
 24 44  1  0  0  0  0
 25 26  1  0  0  0  0
 25 45  1  0  0  0  0
M  END
> <PUBCHEM_COMPOUND_CID>
131636096

> <PUBCHEM_CONFORMER_RMSD>
0.8

> <PUBCHEM_CONFORMER_DIVERSEORDER>
2
17
13
37
14
3
24
22
31
34
28
18
35
26
5
19
33
36
12
30
32
29
7
20
25
8
21
16
15
27
1
6
10
23
11
4
9

> <PUBCHEM_MMFF94_PARTIAL_CHARGES>
36
1 -0.19
10 0.42
11 0.09
12 -0.15
13 -0.14
14 -0.15
15 0.54
16 -0.15
17 -0.05
2 -0.68
20 -0.15
21 -0.15
22 -0.3
23 0.14
24 -0.15
25 -0.15
26 0.19
29 0.15
3 -0.57
30 0.37
31 0.15
32 0.15
39 0.15
4 -0.73
40 0.15
41 0.15
42 0.15
43 0.4
44 0.15
45 0.15
46 0.27
5 0.3
6 -0.71
7 -0.14
8 0.44
9 0.05

> <PUBCHEM_EFFECTIVE_ROTOR_COUNT>
6

> <PUBCHEM_PHARMACOPHORE_FEATURES>
9
1 2 acceptor
1 2 donor
1 3 acceptor
1 4 donor
1 5 donor
1 6 acceptor
5 5 6 17 22 23 rings
6 13 20 21 24 25 26 rings
6 7 9 11 12 14 16 rings

> <PUBCHEM_HEAVY_ATOM_COUNT>
26

> <PUBCHEM_ATOM_DEF_STEREO_COUNT>
2

> <PUBCHEM_ATOM_UDEF_STEREO_COUNT>
0

> <PUBCHEM_BOND_DEF_STEREO_COUNT>
0

> <PUBCHEM_BOND_UDEF_STEREO_COUNT>
0

> <PUBCHEM_ISOTOPIC_ATOM_COUNT>
0

> <PUBCHEM_COMPONENT_COUNT>
1

> <PUBCHEM_CACTVS_TAUTO_COUNT>
11

> <PUBCHEM_CONFORMER_ID>
07D89B8000000002

> <PUBCHEM_MMFF94_ENERGY>
65.7515

> <PUBCHEM_FEATURE_SELFOVERLAP>
45.672

> <PUBCHEM_SHAPE_FINGERPRINT>
10670039 82 16878500125181142676
10835480 77 18337105791274734768
11443803 9 16270823122086479499
11796584 16 18260828224453991762
11991303 11 17022905674959167179
12166972 35 17704070673402156996
12236239 1 15985104110835871345
12633046 712 17916034640520552267
12643181 29 18259701194828461754
12760667 363 18131076991484027096
13533116 47 17632572764994890616
13540713 4 17825664719441223185
13782708 43 18272090560638419859
13914758 101 16845297108016847465
14341114 328 14117511027113196962
15183329 4 18259981548485982824
15188451 53 14908177538695124783
15475509 8 18409730621743665845
15510800 12 18201731626255952046
17857418 61 16702018694801048565
19784866 240 17060619988325938269
19958102 18 18114457864540401678
20028762 73 16917068811846832718
20567600 247 17489295399977901015
20645477 70 18201996647122851756
21307412 95 18410018714663476151
21315764 119 17531246110995472838
21781051 124 17603879909435090363
22061861 79 18413389851683920892
2215653 11 18410573985399390588
22393880 68 18113898303448117562
22849339 104 18040437741348010011
2303208 19 18041570233928801785
23559900 14 18262234525326916152
23569943 247 18129943361037894167
29717793 49 18342734122245241572
3004659 81 17989485221560073572
32027 91 18412548704410428498
3298306 158 18333731308178821786
34797466 226 18115025337178905101
4015057 19 18200587116081462929
404807 14 16983238383077712247
439807 62 17273964917619102439
44062 13 17968099767270138491
5104073 3 14332843876595777043
531348 171 17917711271710593749
5718773 13 18058448695789547558
59755656 215 18187079516633170282
59755656 520 13695586650524883257
6695519 79 17193486330958186880
8988823 20 16702012106896483192

> <PUBCHEM_SHAPE_MULTIPOLES>
501.11
16.7
2.31
1.8
3.73
0.15
0.08
4.57
7.66
1.65
-0.41
-0.86
0.78
2.95

> <PUBCHEM_SHAPE_SELFOVERLAP>
1087.292

> <PUBCHEM_SHAPE_VOLUME>
276.3

> <PUBCHEM_COORDINATE_TYPE>
2
5
10

$$$$
118662889
  -OEChem-05102415143D

 48 50  0     1  0  0  0  0  0999 V2000
    3.3114   -2.0999    1.2669 O   0  0  0  0  0  0  0  0  0  0  0  0
    5.3646   -3.4387   -0.3859 O   0  0  0  0  0  0  0  0  0  0  0  0
    1.0929    0.8682   -2.2630 O   0  0  0  0  0  0  0  0  0  0  0  0
   -3.1970   -1.8752    0.7380 O   0  0  0  0  0  0  0  0  0  0  0  0
    1.5042   -0.4868   -0.4272 N   0  0  0  0  0  0  0  0  0  0  0  0
   -6.8034    0.9180    0.7780 N   0  0  0  0  0  0  0  0  0  0  0  0
   -7.1045   -0.2096    0.1117 N   0  0  0  0  0  0  0  0  0  0  0  0
    2.9394   -0.5677   -0.5980 C   0  0  2  0  0  0  0  0  0  0  0  0
    3.5179   -1.9223   -0.1361 C   0  0  1  0  0  0  0  0  0  0  0  0
    3.6511    0.5967    0.0680 C   0  0  0  0  0  0  0  0  0  0  0  0
    5.0127   -2.0587   -0.4280 C   0  0  0  0  0  0  0  0  0  0  0  0
    0.6955    0.2353   -1.2883 C   0  0  0  0  0  0  0  0  0  0  0  0
    4.7755    1.1628   -0.5330 C   0  0  0  0  0  0  0  0  0  0  0  0
    3.1806    1.1002    1.2808 C   0  0  0  0  0  0  0  0  0  0  0  0
   -0.7535    0.2408   -0.9610 C   0  0  0  0  0  0  0  0  0  0  0  0
   -3.4742    0.2535   -0.3434 C   0  0  0  0  0  0  0  0  0  0  0  0
   -1.3142   -0.8256   -0.2580 C   0  0  0  0  0  0  0  0  0  0  0  0
   -1.5533    1.3136   -1.3552 C   0  0  0  0  0  0  0  0  0  0  0  0
    5.4293    2.2324    0.0789 C   0  0  0  0  0  0  0  0  0  0  0  0
    3.8343    2.1698    1.8927 C   0  0  0  0  0  0  0  0  0  0  0  0
   -2.6745   -0.8194    0.0508 C   0  0  0  0  0  0  0  0  0  0  0  0
   -2.9136    1.3198   -1.0467 C   0  0  0  0  0  0  0  0  0  0  0  0
    4.9589    2.7357    1.2919 C   0  0  0  0  0  0  0  0  0  0  0  0
   -4.8784    0.2811   -0.0340 C   0  0  0  0  0  0  0  0  0  0  0  0
   -5.4831    1.2557    0.7218 C   0  0  0  0  0  0  0  0  0  0  0  0
   -5.9246   -0.5941   -0.3822 C   0  0  0  0  0  0  0  0  0  0  0  0
   -3.1941   -1.7855    2.1608 C   0  0  0  0  0  0  0  0  0  0  0  0
    3.1188   -0.4884   -1.6793 H   0  0  0  0  0  0  0  0  0  0  0  0
    2.9677   -2.7309   -0.6339 H   0  0  0  0  0  0  0  0  0  0  0  0
    1.1199   -0.9000    0.4160 H   0  0  0  0  0  0  0  0  0  0  0  0
    5.6240   -1.5413    0.3178 H   0  0  0  0  0  0  0  0  0  0  0  0
    5.2559   -1.6981   -1.4318 H   0  0  0  0  0  0  0  0  0  0  0  0
    5.1503    0.7885   -1.4816 H   0  0  0  0  0  0  0  0  0  0  0  0
    2.3143    0.6717    1.7769 H   0  0  0  0  0  0  0  0  0  0  0  0
    3.6854   -2.9642    1.5093 H   0  0  0  0  0  0  0  0  0  0  0  0
   -0.7272   -1.6913    0.0364 H   0  0  0  0  0  0  0  0  0  0  0  0
   -1.1343    2.1554   -1.9001 H   0  0  0  0  0  0  0  0  0  0  0  0
    6.3037    2.6744   -0.3897 H   0  0  0  0  0  0  0  0  0  0  0  0
    3.4697    2.5603    2.8383 H   0  0  0  0  0  0  0  0  0  0  0  0
   -3.5190    2.1647   -1.3667 H   0  0  0  0  0  0  0  0  0  0  0  0
    5.4681    3.5683    1.7684 H   0  0  0  0  0  0  0  0  0  0  0  0
    6.3162   -3.4960   -0.5777 H   0  0  0  0  0  0  0  0  0  0  0  0
   -5.1078    2.1401    1.2178 H   0  0  0  0  0  0  0  0  0  0  0  0
   -5.8807   -1.4968   -0.9754 H   0  0  0  0  0  0  0  0  0  0  0  0
   -7.5509    1.4094    1.2518 H   0  0  0  0  0  0  0  0  0  0  0  0
   -3.7436   -0.9026    2.5013 H   0  0  0  0  0  0  0  0  0  0  0  0
   -2.1669   -1.7545    2.5379 H   0  0  0  0  0  0  0  0  0  0  0  0
   -3.6853   -2.6769    2.5606 H   0  0  0  0  0  0  0  0  0  0  0  0
  1  9  1  0  0  0  0
  1 35  1  0  0  0  0
  2 11  1  0  0  0  0
  2 42  1  0  0  0  0
  3 12  2  0  0  0  0
  4 21  1  0  0  0  0
  4 27  1  0  0  0  0
  5  8  1  0  0  0  0
  5 12  1  0  0  0  0
  5 30  1  0  0  0  0
  6  7  1  0  0  0  0
  6 25  1  0  0  0  0
  6 45  1  0  0  0  0
  7 26  2  0  0  0  0
  8  9  1  0  0  0  0
  8 10  1  0  0  0  0
  8 28  1  0  0  0  0
  9 11  1  0  0  0  0
  9 29  1  0  0  0  0
 10 13  2  0  0  0  0
 10 14  1  0  0  0  0
 11 31  1  0  0  0  0
 11 32  1  0  0  0  0
 12 15  1  0  0  0  0
 13 19  1  0  0  0  0
 13 33  1  0  0  0  0
 14 20  2  0  0  0  0
 14 34  1  0  0  0  0
 15 17  2  0  0  0  0
 15 18  1  0  0  0  0
 16 21  2  0  0  0  0
 16 22  1  0  0  0  0
 16 24  1  0  0  0  0
 17 21  1  0  0  0  0
 17 36  1  0  0  0  0
 18 22  2  0  0  0  0
 18 37  1  0  0  0  0
 19 23  2  0  0  0  0
 19 38  1  0  0  0  0
 20 23  1  0  0  0  0
 20 39  1  0  0  0  0
 22 40  1  0  0  0  0
 23 41  1  0  0  0  0
 24 25  2  0  0  0  0
 24 26  1  0  0  0  0
 25 43  1  0  0  0  0
 26 44  1  0  0  0  0
 27 46  1  0  0  0  0
 27 47  1  0  0  0  0
 27 48  1  0  0  0  0
M  END
> <PUBCHEM_COMPOUND_CID>
118662889

> <PUBCHEM_CONFORMER_RMSD>
1

> <PUBCHEM_CONFORMER_DIVERSEORDER>
1
6
14
21
26
11
18
23
13
15
19
25
10
3
16
24
20
22
27
8
7
12
17
9
5
2
4

> <PUBCHEM_MMFF94_PARTIAL_CHARGES>
41
1 -0.68
10 -0.14
11 0.28
12 0.54
13 -0.15
14 -0.15
15 0.09
16 0.05
17 -0.15
18 -0.15
19 -0.15
2 -0.68
20 -0.15
21 0.08
22 -0.15
23 -0.15
24 -0.05
25 -0.3
26 0.14
27 0.28
3 -0.57
30 0.37
33 0.15
34 0.15
35 0.4
36 0.15
37 0.15
38 0.15
39 0.15
4 -0.36
40 0.15
41 0.15
42 0.4
43 0.15
44 0.15
45 0.27
5 -0.73
6 0.3
7 -0.71
8 0.44
9 0.28

> <PUBCHEM_EFFECTIVE_ROTOR_COUNT>
8

> <PUBCHEM_PHARMACOPHORE_FEATURES>
12
1 1 acceptor
1 1 donor
1 2 acceptor
1 2 donor
1 3 acceptor
1 4 acceptor
1 5 donor
1 6 donor
1 7 acceptor
5 6 7 24 25 26 rings
6 10 13 14 19 20 23 rings
6 15 16 17 18 21 22 rings

> <PUBCHEM_HEAVY_ATOM_COUNT>
27

> <PUBCHEM_ATOM_DEF_STEREO_COUNT>
2

> <PUBCHEM_ATOM_UDEF_STEREO_COUNT>
0

> <PUBCHEM_BOND_DEF_STEREO_COUNT>
0

> <PUBCHEM_BOND_UDEF_STEREO_COUNT>
0

> <PUBCHEM_ISOTOPIC_ATOM_COUNT>
0

> <PUBCHEM_COMPONENT_COUNT>
1

> <PUBCHEM_CACTVS_TAUTO_COUNT>
9

> <PUBCHEM_CONFORMER_ID>
0712A6E900000001

> <PUBCHEM_MMFF94_ENERGY>
79.0482

> <PUBCHEM_FEATURE_SELFOVERLAP>
60.903

> <PUBCHEM_SHAPE_FINGERPRINT>
10165383 225 18337956792363987892
11370993 144 18412546500421831225
11475781 23 16951940922395609695
11991303 11 15195280976107334565
12403259 415 18261386702977134357
12596602 18 18342459240522865435
12616971 3 17346023502881696173
12730499 353 18341613750435633788
12788726 201 15864070923254641901
13533116 47 18412545383793780642
13583140 156 18058169603685742203
13673619 4 18189620432803642390
13785724 45 17413886327390972102
13878862 14 18200009777565769444
13955234 65 18341603812097640826
14341114 176 18408888420967964876
14565420 104 18199176464475460176
15183329 4 17060625499444368721
15475509 35 17604698960041556370
15880784 105 18272089405207710643
1813 80 16081089272764808511
21033648 29 18269270330371367408
21130935 74 18410860958536237531
21344244 78 17702934830735845090
21641784 216 14117531926160485035
21859007 373 16806145710844344349
22122407 14 17703800235879702177
23559900 14 18186807971752788510
29717793 49 8214148455819513877
3383291 50 17531819077540889667
3411729 13 18271523191453385524
34797466 226 17060348439678077405
394071 54 17822294629759399580
4073 2 18335705013049160370
474 4 16271934830202517756
5104073 3 18410013238880574947
6823239 73 17967538961069536566

> <PUBCHEM_SHAPE_MULTIPOLES>
517.23
16.7
2.74
1.57
13.26
1.04
0.27
-2.21
3.78
-5.55
0.84
-0.19
-0.29
1.81

> <PUBCHEM_SHAPE_SELFOVERLAP>
1115.235

> <PUBCHEM_SHAPE_VOLUME>
284.3

> <PUBCHEM_COORDINATE_TYPE>
2
5
10

$$$$
118662910
  -OEChem-05102415143D

 44 46  0     1  0  0  0  0  0999 V2000
    2.9113    3.4105    1.1908 F   0  0  0  0  0  0  0  0  0  0  0  0
    1.6842    3.4044   -0.6046 F   0  0  0  0  0  0  0  0  0  0  0  0
   -3.4667    2.7094   -0.0386 O   0  0  0  0  0  0  0  0  0  0  0  0
    2.8556    1.5471   -0.0533 O   0  0  0  0  0  0  0  0  0  0  0  0
   -1.7480   -1.6660   -1.9021 O   0  0  0  0  0  0  0  0  0  0  0  0
   -1.9858    0.3655   -0.8096 N   0  0  0  0  0  0  0  0  0  0  0  0
    6.3856   -1.3361    0.1485 N   0  0  0  0  0  0  0  0  0  0  0  0
    6.2297   -0.7187    1.3319 N   0  0  0  0  0  0  0  0  0  0  0  0
   -3.3953    0.5371   -1.0797 C   0  0  1  0  0  0  0  0  0  0  0  0
   -4.2318   -0.1249   -0.0061 C   0  0  0  0  0  0  0  0  0  0  0  0
   -3.7352    2.0197   -1.2551 C   0  0  0  0  0  0  0  0  0  0  0  0
    0.1612   -0.7783   -0.8701 C   0  0  0  0  0  0  0  0  0  0  0  0
   -1.2436   -0.7390   -1.2438 C   0  0  0  0  0  0  0  0  0  0  0  0
    2.8554   -0.8547   -0.1499 C   0  0  0  0  0  0  0  0  0  0  0  0
    2.2015    0.3712   -0.2755 C   0  0  0  0  0  0  0  0  0  0  0  0
    0.8544    0.4092   -0.6357 C   0  0  0  0  0  0  0  0  0  0  0  0
   -3.7850   -0.1415    1.3152 C   0  0  0  0  0  0  0  0  0  0  0  0
   -5.4497   -0.7186   -0.3381 C   0  0  0  0  0  0  0  0  0  0  0  0
    0.8152   -2.0041   -0.7445 C   0  0  0  0  0  0  0  0  0  0  0  0
    2.1622   -2.0422   -0.3847 C   0  0  0  0  0  0  0  0  0  0  0  0
    4.2433   -0.9169    0.2220 C   0  0  0  0  0  0  0  0  0  0  0  0
   -4.5559   -0.7517    2.3046 C   0  0  0  0  0  0  0  0  0  0  0  0
   -6.2207   -1.3289    0.6514 C   0  0  0  0  0  0  0  0  0  0  0  0
   -5.7739   -1.3452    1.9728 C   0  0  0  0  0  0  0  0  0  0  0  0
    5.2260   -1.4796   -0.5553 C   0  0  0  0  0  0  0  0  0  0  0  0
    4.9190   -0.4649    1.3713 C   0  0  0  0  0  0  0  0  0  0  0  0
    2.0869    2.6372    0.4381 C   0  0  0  0  0  0  0  0  0  0  0  0
   -3.5998    0.0318   -2.0325 H   0  0  0  0  0  0  0  0  0  0  0  0
   -1.5567    1.0477   -0.1928 H   0  0  0  0  0  0  0  0  0  0  0  0
   -4.7932    2.1565   -1.5026 H   0  0  0  0  0  0  0  0  0  0  0  0
   -3.1240    2.4679   -2.0455 H   0  0  0  0  0  0  0  0  0  0  0  0
    0.3613    1.3616   -0.8012 H   0  0  0  0  0  0  0  0  0  0  0  0
   -2.8483    0.3232    1.6097 H   0  0  0  0  0  0  0  0  0  0  0  0
   -5.8099   -0.7109   -1.3634 H   0  0  0  0  0  0  0  0  0  0  0  0
    0.2915   -2.9408   -0.9170 H   0  0  0  0  0  0  0  0  0  0  0  0
    2.6508   -3.0090   -0.2868 H   0  0  0  0  0  0  0  0  0  0  0  0
   -4.2098   -0.7620    3.3340 H   0  0  0  0  0  0  0  0  0  0  0  0
   -7.1692   -1.7906    0.3933 H   0  0  0  0  0  0  0  0  0  0  0  0
   -6.3746   -1.8194    2.7433 H   0  0  0  0  0  0  0  0  0  0  0  0
    5.2128   -1.9586   -1.5246 H   0  0  0  0  0  0  0  0  0  0  0  0
    4.5146    0.0387    2.2382 H   0  0  0  0  0  0  0  0  0  0  0  0
   -3.6917    3.6438   -0.1858 H   0  0  0  0  0  0  0  0  0  0  0  0
    7.3154   -1.6347   -0.1182 H   0  0  0  0  0  0  0  0  0  0  0  0
    1.2350    2.3523    1.0658 H   0  0  0  0  0  0  0  0  0  0  0  0
  1 27  1  0  0  0  0
  2 27  1  0  0  0  0
  3 11  1  0  0  0  0
  3 42  1  0  0  0  0
  4 15  1  0  0  0  0
  4 27  1  0  0  0  0
  5 13  2  0  0  0  0
  6  9  1  0  0  0  0
  6 13  1  0  0  0  0
  6 29  1  0  0  0  0
  7  8  1  0  0  0  0
  7 25  1  0  0  0  0
  7 43  1  0  0  0  0
  8 26  2  0  0  0  0
  9 10  1  0  0  0  0
  9 11  1  0  0  0  0
  9 28  1  0  0  0  0
 10 17  2  0  0  0  0
 10 18  1  0  0  0  0
 11 30  1  0  0  0  0
 11 31  1  0  0  0  0
 12 13  1  0  0  0  0
 12 16  2  0  0  0  0
 12 19  1  0  0  0  0
 14 15  2  0  0  0  0
 14 20  1  0  0  0  0
 14 21  1  0  0  0  0
 15 16  1  0  0  0  0
 16 32  1  0  0  0  0
 17 22  1  0  0  0  0
 17 33  1  0  0  0  0
 18 23  2  0  0  0  0
 18 34  1  0  0  0  0
 19 20  2  0  0  0  0
 19 35  1  0  0  0  0
 20 36  1  0  0  0  0
 21 25  2  0  0  0  0
 21 26  1  0  0  0  0
 22 24  2  0  0  0  0
 22 37  1  0  0  0  0
 23 24  1  0  0  0  0
 23 38  1  0  0  0  0
 24 39  1  0  0  0  0
 25 40  1  0  0  0  0
 26 41  1  0  0  0  0
 27 44  1  0  0  0  0
M  END
> <PUBCHEM_COMPOUND_CID>
118662910

> <PUBCHEM_CONFORMER_RMSD>
1

> <PUBCHEM_CONFORMER_DIVERSEORDER>
1
15
10
13
12
19
17
4
6
5
18
14
11
9
16
2
3
8
7

> <PUBCHEM_MMFF94_PARTIAL_CHARGES>
40
1 -0.34
10 -0.14
11 0.28
12 0.09
13 0.54
14 0.05
15 0.08
16 -0.15
17 -0.15
18 -0.15
19 -0.15
2 -0.34
20 -0.15
21 -0.05
22 -0.15
23 -0.15
24 -0.15
25 -0.3
26 0.14
27 0.96
29 0.37
3 -0.68
32 0.15
33 0.15
34 0.15
35 0.15
36 0.15
37 0.15
38 0.15
39 0.15
4 -0.36
40 0.15
41 0.15
42 0.4
43 0.27
5 -0.57
6 -0.73
7 0.3
8 -0.71
9 0.44

> <PUBCHEM_EFFECTIVE_ROTOR_COUNT>
8

> <PUBCHEM_PHARMACOPHORE_FEATURES>
10
1 3 acceptor
1 3 donor
1 4 acceptor
1 5 acceptor
1 6 donor
1 7 donor
1 8 acceptor
5 7 8 21 25 26 rings
6 10 17 18 22 23 24 rings
6 12 14 15 16 19 20 rings

> <PUBCHEM_HEAVY_ATOM_COUNT>
27

> <PUBCHEM_ATOM_DEF_STEREO_COUNT>
1

> <PUBCHEM_ATOM_UDEF_STEREO_COUNT>
0

> <PUBCHEM_BOND_DEF_STEREO_COUNT>
0

> <PUBCHEM_BOND_UDEF_STEREO_COUNT>
0

> <PUBCHEM_ISOTOPIC_ATOM_COUNT>
0

> <PUBCHEM_COMPONENT_COUNT>
1

> <PUBCHEM_CACTVS_TAUTO_COUNT>
9

> <PUBCHEM_CONFORMER_ID>
0712A6FE00000001

> <PUBCHEM_MMFF94_ENERGY>
72.8609

> <PUBCHEM_FEATURE_SELFOVERLAP>
50.75

> <PUBCHEM_SHAPE_FINGERPRINT>
10 15 18409161130491242482
10076449 9 18270692983176525870
10319926 262 17967805051162390521
10366900 7 18114475508513921443
11045977 3 18113337535591055827
11315181 36 17168150026963464247
11545043 162 17894909620536830541
11646440 116 18202281390616848818
12035758 1 18339910589886894746
12107698 1 18408040710825487097
12166972 35 17989488528389382330
12507557 5 18343016662579245269
12616971 3 18059857302921889479
12633257 1 18339655519994885299
13075007 39 18261114110124627968
13140716 1 18270112556030362710
13540713 5 17914323838992741542
13583140 156 18262231136819012591
13590594 115 18342173337224512392
13782708 43 17894632547575031699
13899415 154 18413112762728636484
14341114 176 18261395580542490557
14341114 328 17489042551733606315
14739800 52 16772378750524007432
14849402 71 18270964677927400880
14950920 106 18337969977507008851
14955137 171 18412832356829790302
15081414 286 18059859424809904462
15183329 4 16343415108228333878
15188451 53 17530965804582286443
15475509 35 17313651712202756418
15475509 8 17631192865354597364
1601671 61 18272360928998008142
17857418 61 15357696370731837834
17980427 23 16056872550865127784
18222031 100 15574712529935329463
18785283 64 18335986488342258636
21033648 29 17702081621795453651
21756936 100 15697996319551866511
23559900 14 16950852517616446989
23569943 247 17700693961330098750
25147074 1 17844801684224045327
2838139 119 14620496957497693834
3004659 81 14707211063161692339
350125 39 18411981394495028485
38570 142 17841735172344166948
392239 28 18336837476262136867
437795 51 18114751542347193384
5081480 168 16484750678905211653
5104073 3 18193837042025346979
59755656 520 16702018669169038567
6009941 240 17969496001066216972
7495541 125 17458348546177258054
8863177 126 17968663829430250738
960060 61 11314299585940352417

> <PUBCHEM_SHAPE_MULTIPOLES>
508.55
15.22
2.82
1.63
0.15
3.17
0.51
-6.24
6.74
1.25
0.08
-1.58
-0.37
1.7

> <PUBCHEM_SHAPE_SELFOVERLAP>
1103.94

> <PUBCHEM_SHAPE_VOLUME>
277.7

> <PUBCHEM_COORDINATE_TYPE>
2
5
10

$$$$
90385104
  -OEChem-05102415143D

 44 46  0     1  0  0  0  0  0999 V2000
    1.3939   -0.1859   -2.1311 O   0  0  0  0  0  0  0  0  0  0  0  0
    1.8183   -1.0112   -0.0062 N   0  0  0  0  0  0  0  0  0  0  0  0
    3.0253   -3.6163    0.2964 N   0  0  0  0  0  0  0  0  0  0  0  0
   -6.3247    0.4130    1.5105 N   0  0  0  0  0  0  0  0  0  0  0  0
   -6.7978    0.1369    0.2833 N   0  0  0  0  0  0  0  0  0  0  0  0
    3.2407   -1.1992   -0.1802 C   0  0  1  0  0  0  0  0  0  0  0  0
    3.9919    0.0716    0.1630 C   0  0  0  0  0  0  0  0  0  0  0  0
    3.7575   -2.3975    0.6325 C   0  0  0  0  0  0  0  0  0  0  0  0
   -0.4301   -0.3561   -0.6676 C   0  0  0  0  0  0  0  0  0  0  0  0
    0.9761   -0.5102   -1.0055 C   0  0  0  0  0  0  0  0  0  0  0  0
   -3.1272   -0.0614   -0.0180 C   0  0  0  0  0  0  0  0  0  0  0  0
   -2.5528    0.7501   -0.9965 C   0  0  0  0  0  0  0  0  0  0  0  0
   -1.2042    0.6028   -1.3212 C   0  0  0  0  0  0  0  0  0  0  0  0
    3.5326    0.8979    1.1887 C   0  0  0  0  0  0  0  0  0  0  0  0
    5.1425    0.4149   -0.5469 C   0  0  0  0  0  0  0  0  0  0  0  0
   -1.0046   -1.1676    0.3110 C   0  0  0  0  0  0  0  0  0  0  0  0
   -2.3530   -1.0200    0.6358 C   0  0  0  0  0  0  0  0  0  0  0  0
   -4.5151    0.0710    0.3360 C   0  0  0  0  0  0  0  0  0  0  0  0
   -3.3505    1.7892   -1.7179 C   0  0  0  0  0  0  0  0  0  0  0  0
    4.2240    2.0675    1.5047 C   0  0  0  0  0  0  0  0  0  0  0  0
    5.8340    1.5846   -0.2310 C   0  0  0  0  0  0  0  0  0  0  0  0
    5.3748    2.4106    0.7950 C   0  0  0  0  0  0  0  0  0  0  0  0
   -4.9637    0.3865    1.5954 C   0  0  0  0  0  0  0  0  0  0  0  0
   -5.6878   -0.0711   -0.4299 C   0  0  0  0  0  0  0  0  0  0  0  0
    3.4028   -1.4080   -1.2467 H   0  0  0  0  0  0  0  0  0  0  0  0
    4.8263   -2.5532    0.4448 H   0  0  0  0  0  0  0  0  0  0  0  0
    3.6407   -2.2099    1.7065 H   0  0  0  0  0  0  0  0  0  0  0  0
    1.4501   -1.1732    0.9256 H   0  0  0  0  0  0  0  0  0  0  0  0
   -0.7581    1.2389   -2.0823 H   0  0  0  0  0  0  0  0  0  0  0  0
   -0.4466   -1.9473    0.8212 H   0  0  0  0  0  0  0  0  0  0  0  0
    2.6496    0.6502    1.7708 H   0  0  0  0  0  0  0  0  0  0  0  0
    5.5117   -0.2212   -1.3469 H   0  0  0  0  0  0  0  0  0  0  0  0
   -2.7832   -1.6706    1.3939 H   0  0  0  0  0  0  0  0  0  0  0  0
   -2.7035    2.4702   -2.2826 H   0  0  0  0  0  0  0  0  0  0  0  0
   -3.9167    2.4135   -1.0188 H   0  0  0  0  0  0  0  0  0  0  0  0
   -4.0337    1.3216   -2.4338 H   0  0  0  0  0  0  0  0  0  0  0  0
    3.4279   -4.4026    0.8046 H   0  0  0  0  0  0  0  0  0  0  0  0
    3.1446   -3.8242   -0.6942 H   0  0  0  0  0  0  0  0  0  0  0  0
    3.8689    2.7091    2.3058 H   0  0  0  0  0  0  0  0  0  0  0  0
    6.7302    1.8517   -0.7832 H   0  0  0  0  0  0  0  0  0  0  0  0
    5.9137    3.3207    1.0417 H   0  0  0  0  0  0  0  0  0  0  0  0
   -4.4549    0.5925    2.5270 H   0  0  0  0  0  0  0  0  0  0  0  0
   -5.7861   -0.3217   -1.4768 H   0  0  0  0  0  0  0  0  0  0  0  0
   -6.9896    0.6118    2.2475 H   0  0  0  0  0  0  0  0  0  0  0  0
  1 10  2  0  0  0  0
  2  6  1  0  0  0  0
  2 10  1  0  0  0  0
  2 28  1  0  0  0  0
  3  8  1  0  0  0  0
  3 37  1  0  0  0  0
  3 38  1  0  0  0  0
  4  5  1  0  0  0  0
  4 23  1  0  0  0  0
  4 44  1  0  0  0  0
  5 24  2  0  0  0  0
  6  7  1  0  0  0  0
  6  8  1  0  0  0  0
  6 25  1  0  0  0  0
  7 14  2  0  0  0  0
  7 15  1  0  0  0  0
  8 26  1  0  0  0  0
  8 27  1  0  0  0  0
  9 10  1  0  0  0  0
  9 13  2  0  0  0  0
  9 16  1  0  0  0  0
 11 12  2  0  0  0  0
 11 17  1  0  0  0  0
 11 18  1  0  0  0  0
 12 13  1  0  0  0  0
 12 19  1  0  0  0  0
 13 29  1  0  0  0  0
 14 20  1  0  0  0  0
 14 31  1  0  0  0  0
 15 21  2  0  0  0  0
 15 32  1  0  0  0  0
 16 17  2  0  0  0  0
 16 30  1  0  0  0  0
 17 33  1  0  0  0  0
 18 23  2  0  0  0  0
 18 24  1  0  0  0  0
 19 34  1  0  0  0  0
 19 35  1  0  0  0  0
 19 36  1  0  0  0  0
 20 22  2  0  0  0  0
 20 39  1  0  0  0  0
 21 22  1  0  0  0  0
 21 40  1  0  0  0  0
 22 41  1  0  0  0  0
 23 42  1  0  0  0  0
 24 43  1  0  0  0  0
M  END
> <PUBCHEM_COMPOUND_CID>
90385104

> <PUBCHEM_CONFORMER_RMSD>
0.8

> <PUBCHEM_CONFORMER_DIVERSEORDER>
2
11
15
24
3
5
23
6
22
7
21
19
9
16
12
1
20
4
14
13
10
8
18
17

> <PUBCHEM_MMFF94_PARTIAL_CHARGES>
38
1 -0.57
10 0.54
11 0.05
12 -0.14
13 -0.15
14 -0.15
15 -0.15
16 -0.15
17 -0.15
18 -0.05
19 0.14
2 -0.73
20 -0.15
21 -0.15
22 -0.15
23 -0.3
24 0.14
28 0.37
29 0.15
3 -0.99
30 0.15
31 0.15
32 0.15
33 0.15
37 0.36
38 0.36
39 0.15
4 0.3
40 0.15
41 0.15
42 0.15
43 0.15
44 0.27
5 -0.71
6 0.44
7 -0.14
8 0.27
9 0.09

> <PUBCHEM_EFFECTIVE_ROTOR_COUNT>
6

> <PUBCHEM_PHARMACOPHORE_FEATURES>
9
1 1 acceptor
1 2 donor
1 3 cation
1 3 donor
1 4 donor
1 5 acceptor
5 4 5 18 23 24 rings
6 7 14 15 20 21 22 rings
6 9 11 12 13 16 17 rings

> <PUBCHEM_HEAVY_ATOM_COUNT>
24

> <PUBCHEM_ATOM_DEF_STEREO_COUNT>
1

> <PUBCHEM_ATOM_UDEF_STEREO_COUNT>
0

> <PUBCHEM_BOND_DEF_STEREO_COUNT>
0

> <PUBCHEM_BOND_UDEF_STEREO_COUNT>
0

> <PUBCHEM_ISOTOPIC_ATOM_COUNT>
0

> <PUBCHEM_COMPONENT_COUNT>
1

> <PUBCHEM_CACTVS_TAUTO_COUNT>
7

> <PUBCHEM_CONFORMER_ID>
05632AD000000002

> <PUBCHEM_MMFF94_ENERGY>
59.6401

> <PUBCHEM_FEATURE_SELFOVERLAP>
45.673

> <PUBCHEM_SHAPE_FINGERPRINT>
10 15 17676767669191107972
10165383 225 18334862749463069700
10319926 262 17386830743734593008
10554248 39 17345187801684419533
10912923 1 17846210047440894447
11796584 16 15719684216458116899
11828532 37 12679167354222161845
12236239 1 16702303463959763293
12403259 415 18261672575894601069
12507560 40 18187079512269540582
12596602 18 18342745104988139107
12616971 3 17560790001123238414
12633257 1 17968650652818661488
12730499 353 18408324385052338970
12788726 201 17060066903875330616
12892183 10 17822567214016007662
13533116 47 18338519638172654946
13673619 4 18042973056559192254
13675066 3 18040435451987581039
13955234 65 18337948996655668586
14341114 176 18335423460899993324
14341114 328 17846780689659461883
14528608 73 17132113575827429985
146900 427 18272650151584050098
14840074 17 17775286092566992093
15142526 21 18127964424722049368
15183329 4 11671792567154168613
15961568 22 17703801314143768673
17844677 252 18338517417753281373
17857418 61 13695586663488749721
19784866 240 13045935798384625224
1979834 28 18113902671656256028
21033648 29 18188196637495264045
21049683 271 18116721721377417550
21130935 74 18261962852114512907
21315764 119 14261084180972671212
21859007 373 16226309457721978399
22122407 14 17774735232835240113
23559900 14 17896316926970101814
268830 7 18130506340712324867
3004659 81 12540695899275770298
3178227 256 18409164386635843058
34797466 226 17203338814383996149
3545911 37 18334013891504202342
4058900 60 15697459745118814567
474 4 17060344019586972062
5104073 3 17896314723150764377
542803 24 17704354368365074951
6442390 28 18263923410137671010
960060 61 11097862877727780106

> <PUBCHEM_SHAPE_MULTIPOLES>
468.12
16
2.3
1.51
8.98
1.28
-0.16
-6.26
5.05
-4.44
0.45
0.75
-0.55
1.03

> <PUBCHEM_SHAPE_SELFOVERLAP>
1015.211

> <PUBCHEM_SHAPE_VOLUME>
256.9

> <PUBCHEM_COORDINATE_TYPE>
2
5
10

$$$$
118662977
  -OEChem-05102415143D

 41 43  0     1  0  0  0  0  0999 V2000
    4.5080   -1.2812    1.6796 F   0  0  0  0  0  0  0  0  0  0  0  0
    3.1919    1.2862   -2.0906 F   0  0  0  0  0  0  0  0  0  0  0  0
    3.2897    3.1447    1.7875 O   0  0  0  0  0  0  0  0  0  0  0  0
    1.1934   -0.7764    1.9440 O   0  0  0  0  0  0  0  0  0  0  0  0
    1.6794    0.9515    0.4759 N   0  0  0  0  0  0  0  0  0  0  0  0
   -6.4595    0.7132   -1.5863 N   0  0  0  0  0  0  0  0  0  0  0  0
   -6.9552    0.3842   -0.3812 N   0  0  0  0  0  0  0  0  0  0  0  0
   -4.1996   -3.0724    0.7106 N   0  0  0  0  0  0  0  0  0  0  0  0
    3.1024    0.9892    0.7263 C   0  0  1  0  0  0  0  0  0  0  0  0
    3.8330    0.0258   -0.1840 C   0  0  0  0  0  0  0  0  0  0  0  0
    3.6335    2.4205    0.6106 C   0  0  0  0  0  0  0  0  0  0  0  0
    0.8056    0.0598    1.1089 C   0  0  0  0  0  0  0  0  0  0  0  0
   -0.5969    0.1298    0.7309 C   0  0  0  0  0  0  0  0  0  0  0  0
    4.5047   -1.0711    0.3559 C   0  0  0  0  0  0  0  0  0  0  0  0
    3.8352    0.2354   -1.5631 C   0  0  0  0  0  0  0  0  0  0  0  0
   -3.2875    0.2658    0.0062 C   0  0  0  0  0  0  0  0  0  0  0  0
   -1.4071   -1.0003    0.8415 C   0  0  0  0  0  0  0  0  0  0  0  0
   -1.1321    1.3281    0.2580 C   0  0  0  0  0  0  0  0  0  0  0  0
   -2.7523   -0.9324    0.4792 C   0  0  0  0  0  0  0  0  0  0  0  0
   -2.4775    1.3959   -0.1045 C   0  0  0  0  0  0  0  0  0  0  0  0
    5.1787   -1.9584   -0.4833 C   0  0  0  0  0  0  0  0  0  0  0  0
    4.5090   -0.6520   -2.4023 C   0  0  0  0  0  0  0  0  0  0  0  0
   -4.6710    0.3758   -0.3787 C   0  0  0  0  0  0  0  0  0  0  0  0
    5.1806   -1.7489   -1.8624 C   0  0  0  0  0  0  0  0  0  0  0  0
   -5.0966    0.7227   -1.6378 C   0  0  0  0  0  0  0  0  0  0  0  0
   -5.8580    0.1792    0.3523 C   0  0  0  0  0  0  0  0  0  0  0  0
   -3.5520   -2.1148    0.6070 C   0  0  0  0  0  0  0  0  0  0  0  0
    3.2427    0.6703    1.7671 H   0  0  0  0  0  0  0  0  0  0  0  0
    4.7267    2.4272    0.5361 H   0  0  0  0  0  0  0  0  0  0  0  0
    3.2217    2.9510   -0.2544 H   0  0  0  0  0  0  0  0  0  0  0  0
    1.3360    1.5333   -0.2816 H   0  0  0  0  0  0  0  0  0  0  0  0
   -0.9914   -1.9380    1.2057 H   0  0  0  0  0  0  0  0  0  0  0  0
   -0.5446    2.2387    0.1861 H   0  0  0  0  0  0  0  0  0  0  0  0
   -2.8757    2.3437   -0.4600 H   0  0  0  0  0  0  0  0  0  0  0  0
    5.7014   -2.8123   -0.0628 H   0  0  0  0  0  0  0  0  0  0  0  0
    4.5103   -0.4887   -3.4759 H   0  0  0  0  0  0  0  0  0  0  0  0
    5.7051   -2.4399   -2.5159 H   0  0  0  0  0  0  0  0  0  0  0  0
    3.6486    4.0426    1.6845 H   0  0  0  0  0  0  0  0  0  0  0  0
   -4.5706    0.9695   -2.5498 H   0  0  0  0  0  0  0  0  0  0  0  0
   -5.9748   -0.1017    1.3897 H   0  0  0  0  0  0  0  0  0  0  0  0
   -7.1111    0.9199   -2.3330 H   0  0  0  0  0  0  0  0  0  0  0  0
  1 14  1  0  0  0  0
  2 15  1  0  0  0  0
  3 11  1  0  0  0  0
  3 38  1  0  0  0  0
  4 12  2  0  0  0  0
  5  9  1  0  0  0  0
  5 12  1  0  0  0  0
  5 31  1  0  0  0  0
  6  7  1  0  0  0  0
  6 25  1  0  0  0  0
  6 41  1  0  0  0  0
  7 26  2  0  0  0  0
  8 27  3  0  0  0  0
  9 10  1  0  0  0  0
  9 11  1  0  0  0  0
  9 28  1  0  0  0  0
 10 14  2  0  0  0  0
 10 15  1  0  0  0  0
 11 29  1  0  0  0  0
 11 30  1  0  0  0  0
 12 13  1  0  0  0  0
 13 17  2  0  0  0  0
 13 18  1  0  0  0  0
 14 21  1  0  0  0  0
 15 22  2  0  0  0  0
 16 19  2  0  0  0  0
 16 20  1  0  0  0  0
 16 23  1  0  0  0  0
 17 19  1  0  0  0  0
 17 32  1  0  0  0  0
 18 20  2  0  0  0  0
 18 33  1  0  0  0  0
 19 27  1  0  0  0  0
 20 34  1  0  0  0  0
 21 24  2  0  0  0  0
 21 35  1  0  0  0  0
 22 24  1  0  0  0  0
 22 36  1  0  0  0  0
 23 25  2  0  0  0  0
 23 26  1  0  0  0  0
 24 37  1  0  0  0  0
 25 39  1  0  0  0  0
 26 40  1  0  0  0  0
M  END
> <PUBCHEM_COMPOUND_CID>
118662977

> <PUBCHEM_CONFORMER_RMSD>
0.8

> <PUBCHEM_CONFORMER_DIVERSEORDER>
1
32
40
12
23
5
33
39
8
22
45
44
25
10
41
14
47
30
16
35
27
36
31
28
11
42
7
43
20
34
26
24
19
15
38
4
46
29
6
37
3
9
18
21
13
17
2

> <PUBCHEM_MMFF94_PARTIAL_CHARGES>
38
1 -0.19
10 -0.14
11 0.28
12 0.54
13 0.09
14 0.19
15 0.19
16 0.05
17 -0.15
18 -0.15
19 0.07
2 -0.19
20 -0.15
21 -0.15
22 -0.15
23 -0.05
24 -0.15
25 -0.3
26 0.14
27 0.48
3 -0.68
31 0.37
32 0.15
33 0.15
34 0.15
35 0.15
36 0.15
37 0.15
38 0.4
39 0.15
4 -0.57
40 0.15
41 0.27
5 -0.73
6 0.3
7 -0.71
8 -0.56
9 0.44

> <PUBCHEM_EFFECTIVE_ROTOR_COUNT>
6

> <PUBCHEM_PHARMACOPHORE_FEATURES>
10
1 3 acceptor
1 3 donor
1 4 acceptor
1 5 donor
1 6 donor
1 7 acceptor
1 8 acceptor
5 6 7 23 25 26 rings
6 10 14 15 21 22 24 rings
6 13 16 17 18 19 20 rings

> <PUBCHEM_HEAVY_ATOM_COUNT>
27

> <PUBCHEM_ATOM_DEF_STEREO_COUNT>
1

> <PUBCHEM_ATOM_UDEF_STEREO_COUNT>
0

> <PUBCHEM_BOND_DEF_STEREO_COUNT>
0

> <PUBCHEM_BOND_UDEF_STEREO_COUNT>
0

> <PUBCHEM_ISOTOPIC_ATOM_COUNT>
0

> <PUBCHEM_COMPONENT_COUNT>
1

> <PUBCHEM_CACTVS_TAUTO_COUNT>
9

> <PUBCHEM_CONFORMER_ID>
0712A74100000001

> <PUBCHEM_MMFF94_ENERGY>
59.8781

> <PUBCHEM_FEATURE_SELFOVERLAP>
50.749

> <PUBCHEM_SHAPE_FINGERPRINT>
10165383 225 10881692282791378930
10670039 82 17386570150250962260
11135609 201 11170494477608729294
11796584 16 18411138047755233578
11991303 11 17967254222050491627
12166972 35 16988564563747453174
13533116 47 16056876914551705198
13782708 43 17846497089033149231
13914758 101 15841276948622149723
14347332 77 17846217692424749905
14528608 73 16370449955538948669
15183329 4 18336551525427960239
15419008 42 15337165070375293461
15510800 12 17774173309727772566
15575132 122 15791727469653270847
17349148 13 16343710919478382510
17857418 61 15195563503096953671
19377110 9 12607398897045061742
19958102 18 18261661663011150967
20645477 70 17989486329492843676
21315764 119 18187651245489364511
21781051 124 18187659015628814347
22061861 79 18202847656005480247
2215653 11 18342740702055673639
22393880 68 18334011722129538779
2303208 19 18335427898023054235
23559900 14 18410574019690843096
23569943 247 17631176282391746999
29717793 49 17989202629549052361
3004659 81 18259704476167391466
3298306 158 18412546487722455191
34797466 226 18340764953091949801
3886686 26 12602955624707309308
4015057 19 17917421069196872497
44062 13 18335706078623185703
633830 44 15936410052345769546
8988823 20 15554438600850306106
960060 61 17418376925635060233
9658208 31 17894631499824148915

> <PUBCHEM_SHAPE_MULTIPOLES>
509.44
16.04
2.38
1.84
11.82
0.18
0.68
-3.24
6.44
-1.85
-0.8
-1.58
-0.14
2.33

> <PUBCHEM_SHAPE_SELFOVERLAP>
1116.477

> <PUBCHEM_SHAPE_VOLUME>
275

> <PUBCHEM_COORDINATE_TYPE>
2
5
10

$$$$
90385122
  -OEChem-05102415143D

 44 46  0     1  0  0  0  0  0999 V2000
    1.7277   -0.2115    2.0699 O   0  0  0  0  0  0  0  0  0  0  0  0
   -3.9995   -1.7612    1.5686 O   0  0  0  0  0  0  0  0  0  0  0  0
    2.2315    1.2707    0.3594 N   0  0  0  0  0  0  0  0  0  0  0  0
   -6.1806    1.0609   -0.7411 N   0  0  0  0  0  0  0  0  0  0  0  0
   -6.0839   -0.0164   -1.5388 N   0  0  0  0  0  0  0  0  0  0  0  0
    3.6472    1.3681    0.6334 C   0  0  1  0  0  0  0  0  0  0  0  0
    4.4282    0.2964   -0.0961 C   0  0  0  0  0  0  0  0  0  0  0  0
   -0.0415    0.4661    0.6883 C   0  0  0  0  0  0  0  0  0  0  0  0
   -2.7145    0.4462   -0.1106 C   0  0  0  0  0  0  0  0  0  0  0  0
   -2.1781   -0.6545    0.5578 C   0  0  0  0  0  0  0  0  0  0  0  0
    4.1479    2.7760    0.3172 C   0  0  0  0  0  0  0  0  0  0  0  0
    1.3521    0.4770    1.1049 C   0  0  0  0  0  0  0  0  0  0  0  0
   -0.8416   -0.6444    0.9571 C   0  0  0  0  0  0  0  0  0  0  0  0
   -0.5779    1.5667    0.0199 C   0  0  0  0  0  0  0  0  0  0  0  0
   -1.9142    1.5566   -0.3798 C   0  0  0  0  0  0  0  0  0  0  0  0
   -4.0895    0.4645   -0.5345 C   0  0  0  0  0  0  0  0  0  0  0  0
    4.0150   -0.1305   -1.3581 C   0  0  0  0  0  0  0  0  0  0  0  0
    5.5611   -0.2644    0.4937 C   0  0  0  0  0  0  0  0  0  0  0  0
   -2.9795   -1.8359    0.8591 C   0  0  0  0  0  0  0  0  0  0  0  0
    4.7348   -1.1184   -2.0305 C   0  0  0  0  0  0  0  0  0  0  0  0
    6.2809   -1.2522   -0.1786 C   0  0  0  0  0  0  0  0  0  0  0  0
   -5.0138    1.3905   -0.1163 C   0  0  0  0  0  0  0  0  0  0  0  0
   -4.8043   -0.3763   -1.4085 C   0  0  0  0  0  0  0  0  0  0  0  0
    5.8679   -1.6789   -1.4409 C   0  0  0  0  0  0  0  0  0  0  0  0
   -2.5752   -3.1951    0.3046 C   0  0  0  0  0  0  0  0  0  0  0  0
    3.7717    1.2037    1.7117 H   0  0  0  0  0  0  0  0  0  0  0  0
    1.8975    1.7367   -0.4782 H   0  0  0  0  0  0  0  0  0  0  0  0
    4.0331    3.0115   -0.7473 H   0  0  0  0  0  0  0  0  0  0  0  0
    3.5842    3.5255    0.8836 H   0  0  0  0  0  0  0  0  0  0  0  0
    5.2081    2.8845    0.5700 H   0  0  0  0  0  0  0  0  0  0  0  0
   -0.4272   -1.5053    1.4776 H   0  0  0  0  0  0  0  0  0  0  0  0
    0.0010    2.4630   -0.1829 H   0  0  0  0  0  0  0  0  0  0  0  0
   -2.3121    2.4264   -0.8979 H   0  0  0  0  0  0  0  0  0  0  0  0
    3.1462    0.2976   -1.8500 H   0  0  0  0  0  0  0  0  0  0  0  0
    5.8944    0.0608    1.4756 H   0  0  0  0  0  0  0  0  0  0  0  0
    4.4155   -1.4485   -3.0147 H   0  0  0  0  0  0  0  0  0  0  0  0
    7.1633   -1.6885    0.2801 H   0  0  0  0  0  0  0  0  0  0  0  0
   -4.9555    2.2362    0.5550 H   0  0  0  0  0  0  0  0  0  0  0  0
   -4.4501   -1.2365   -1.9593 H   0  0  0  0  0  0  0  0  0  0  0  0
    6.4290   -2.4472   -1.9648 H   0  0  0  0  0  0  0  0  0  0  0  0
   -3.4408   -3.6551   -0.1796 H   0  0  0  0  0  0  0  0  0  0  0  0
   -1.7832   -3.0891   -0.4419 H   0  0  0  0  0  0  0  0  0  0  0  0
   -2.2179   -3.8260    1.1222 H   0  0  0  0  0  0  0  0  0  0  0  0
   -7.0772    1.5253   -0.6686 H   0  0  0  0  0  0  0  0  0  0  0  0
  1 12  2  0  0  0  0
  2 19  2  0  0  0  0
  3  6  1  0  0  0  0
  3 12  1  0  0  0  0
  3 27  1  0  0  0  0
  4  5  1  0  0  0  0
  4 22  1  0  0  0  0
  4 44  1  0  0  0  0
  5 23  2  0  0  0  0
  6  7  1  0  0  0  0
  6 11  1  0  0  0  0
  6 26  1  0  0  0  0
  7 17  2  0  0  0  0
  7 18  1  0  0  0  0
  8 12  1  0  0  0  0
  8 13  2  0  0  0  0
  8 14  1  0  0  0  0
  9 10  2  0  0  0  0
  9 15  1  0  0  0  0
  9 16  1  0  0  0  0
 10 13  1  0  0  0  0
 10 19  1  0  0  0  0
 11 28  1  0  0  0  0
 11 29  1  0  0  0  0
 11 30  1  0  0  0  0
 13 31  1  0  0  0  0
 14 15  2  0  0  0  0
 14 32  1  0  0  0  0
 15 33  1  0  0  0  0
 16 22  2  0  0  0  0
 16 23  1  0  0  0  0
 17 20  1  0  0  0  0
 17 34  1  0  0  0  0
 18 21  2  0  0  0  0
 18 35  1  0  0  0  0
 19 25  1  0  0  0  0
 20 24  2  0  0  0  0
 20 36  1  0  0  0  0
 21 24  1  0  0  0  0
 21 37  1  0  0  0  0
 22 38  1  0  0  0  0
 23 39  1  0  0  0  0
 24 40  1  0  0  0  0
 25 41  1  0  0  0  0
 25 42  1  0  0  0  0
 25 43  1  0  0  0  0
M  END
> <PUBCHEM_COMPOUND_CID>
90385122

> <PUBCHEM_CONFORMER_RMSD>
0.8

> <PUBCHEM_CONFORMER_DIVERSEORDER>
1
29
35
38
23
37
33
5
8
32
9
15
41
39
19
36
43
31
42
4
30
20
17
28
16
27
26
24
44
22
40
12
25
14
21
34
10
18
11
13
6
3
2
7

> <PUBCHEM_MMFF94_PARTIAL_CHARGES>
36
1 -0.57
10 0.09
12 0.54
13 -0.15
14 -0.15
15 -0.15
16 -0.05
17 -0.15
18 -0.15
19 0.42
2 -0.57
20 -0.15
21 -0.15
22 -0.3
23 0.14
24 -0.15
25 0.06
27 0.37
3 -0.73
31 0.15
32 0.15
33 0.15
34 0.15
35 0.15
36 0.15
37 0.15
38 0.15
39 0.15
4 0.3
40 0.15
44 0.27
5 -0.71
6 0.44
7 -0.14
8 0.09
9 0.05

> <PUBCHEM_EFFECTIVE_ROTOR_COUNT>
6

> <PUBCHEM_PHARMACOPHORE_FEATURES>
8
1 1 acceptor
1 2 acceptor
1 3 donor
1 4 donor
1 5 acceptor
5 4 5 16 22 23 rings
6 7 17 18 20 21 24 rings
6 8 9 10 13 14 15 rings

> <PUBCHEM_HEAVY_ATOM_COUNT>
25

> <PUBCHEM_ATOM_DEF_STEREO_COUNT>
1

> <PUBCHEM_ATOM_UDEF_STEREO_COUNT>
0

> <PUBCHEM_BOND_DEF_STEREO_COUNT>
0

> <PUBCHEM_BOND_UDEF_STEREO_COUNT>
0

> <PUBCHEM_ISOTOPIC_ATOM_COUNT>
0

> <PUBCHEM_COMPONENT_COUNT>
1

> <PUBCHEM_CACTVS_TAUTO_COUNT>
24

> <PUBCHEM_CONFORMER_ID>
05632AE200000001

> <PUBCHEM_MMFF94_ENERGY>
68.5582

> <PUBCHEM_FEATURE_SELFOVERLAP>
40.597

> <PUBCHEM_SHAPE_FINGERPRINT>
10670039 82 16950843583910794620
10835480 77 18340483478184155440
11796584 16 18410011044463626762
12236239 1 16443067196742664616
12596602 18 11097850766342304421
12643181 29 18335137579577279754
12760667 363 17917438588030602722
13540713 4 18044932618176052457
13782708 43 18059294370090828023
13914758 101 16128380333707825337
14251740 57 15195299582063344452
14251751 18 18411706508700152778
14840074 17 14634874149440070791
15183329 4 18335137557822309690
15475509 8 18339927017899963981
15510800 12 17988938738627914398
17349148 13 13973688368674517017
17844677 252 18261680375428941304
17857418 61 16200148798319669309
19784866 240 16630527310602065844
19958102 18 18261383430169934655
20567600 247 17275094033538369495
20645477 70 18060698390725950236
21307412 95 18341903964975064326
21315764 119 17822576001930928718
22061861 79 18272933825557564796
2215653 11 18413389821882893908
22393880 68 18261390087459070074
22849339 104 18188213203659203123
23198884 109 18409727348872610249
23559900 14 18409445925346018464
23569914 2 12254409652840419319
23569943 247 17986956254664833623
29717793 49 18272649043646310260
3004659 81 18131630072024744668
3298306 158 18410294688029978690
34797466 226 18336545027074298253
4015057 19 18059851809432248009
404807 14 16696417567852929495
4058900 60 16516522175960800873
4073 2 18335419131936806704
4325135 7 13334747838200441321
439807 62 17059761343608429351
44062 13 18334581273379050467
542803 24 14129058114527209504
5718773 13 17843968049254646014
59755656 215 18262235525995955430
59755656 520 18412272718754915171
633830 44 16950847024126473664
6695519 79 17052462961147516328
8988823 20 16343694444469249040

> <PUBCHEM_SHAPE_MULTIPOLES>
487.81
16.06
2.37
1.53
4.06
0.56
0.16
2.58
6.62
0.25
-0.27
0.19
0.54
2.26

> <PUBCHEM_SHAPE_SELFOVERLAP>
1061.298

> <PUBCHEM_SHAPE_VOLUME>
267.1

> <PUBCHEM_COORDINATE_TYPE>
2
5
10

$$$$
90385111
  -OEChem-05102415153D

 51 53  0     1  0  0  0  0  0999 V2000
   -3.8288    1.8068    1.6491 F   0  0  0  0  0  0  0  0  0  0  0  0
   -2.6798   -0.6316   -2.2590 F   0  0  0  0  0  0  0  0  0  0  0  0
   -0.5901    0.9560    1.9290 O   0  0  0  0  0  0  0  0  0  0  0  0
    4.2605    1.8169    0.7450 O   0  0  0  0  0  0  0  0  0  0  0  0
   -1.2135   -0.6264    0.3529 N   0  0  0  0  0  0  0  0  0  0  0  0
   -4.7601   -1.7993    0.6711 N   0  0  0  0  0  0  0  0  0  0  0  0
    6.9715   -1.0692   -1.5213 N   0  0  0  0  0  0  0  0  0  0  0  0
    7.4582   -0.8568   -0.2866 N   0  0  0  0  0  0  0  0  0  0  0  0
   -2.6385   -0.5322    0.5751 C   0  0  2  0  0  0  0  0  0  0  0  0
   -3.3385   -1.8813    0.3442 C   0  0  0  0  0  0  0  0  0  0  0  0
   -3.2405    0.5615   -0.2844 C   0  0  0  0  0  0  0  0  0  0  0  0
   -0.2692    0.1334    1.0531 C   0  0  0  0  0  0  0  0  0  0  0  0
   -3.8102    1.6851    0.3147 C   0  0  0  0  0  0  0  0  0  0  0  0
   -3.2254    0.4441   -1.6742 C   0  0  0  0  0  0  0  0  0  0  0  0
   -5.4103   -3.0861    0.4753 C   0  0  0  0  0  0  0  0  0  0  0  0
    1.1276   -0.0584    0.6967 C   0  0  0  0  0  0  0  0  0  0  0  0
    3.8078   -0.4284    0.0159 C   0  0  0  0  0  0  0  0  0  0  0  0
    2.0450    0.9747    0.8885 C   0  0  0  0  0  0  0  0  0  0  0  0
   -4.3646    2.6915   -0.4763 C   0  0  0  0  0  0  0  0  0  0  0  0
   -3.7800    1.4504   -2.4652 C   0  0  0  0  0  0  0  0  0  0  0  0
    1.5503   -1.2766    0.1643 C   0  0  0  0  0  0  0  0  0  0  0  0
    3.3851    0.7898    0.5482 C   0  0  0  0  0  0  0  0  0  0  0  0
   -6.8906   -3.0096    0.8084 C   0  0  0  0  0  0  0  0  0  0  0  0
    2.8903   -1.4614   -0.1761 C   0  0  0  0  0  0  0  0  0  0  0  0
   -4.3494    2.5743   -1.8662 C   0  0  0  0  0  0  0  0  0  0  0  0
    5.1849   -0.6409   -0.3400 C   0  0  0  0  0  0  0  0  0  0  0  0
    5.6153   -0.9517   -1.6068 C   0  0  0  0  0  0  0  0  0  0  0  0
    6.3621   -0.5956    0.4305 C   0  0  0  0  0  0  0  0  0  0  0  0
    3.7311    3.0213    1.2941 C   0  0  0  0  0  0  0  0  0  0  0  0
   -2.7717   -0.2705    1.6332 H   0  0  0  0  0  0  0  0  0  0  0  0
   -3.2052   -2.2270   -0.6873 H   0  0  0  0  0  0  0  0  0  0  0  0
   -2.8572   -2.6328    0.9847 H   0  0  0  0  0  0  0  0  0  0  0  0
   -0.9145   -1.2003   -0.4290 H   0  0  0  0  0  0  0  0  0  0  0  0
   -4.8751   -1.4966    1.6380 H   0  0  0  0  0  0  0  0  0  0  0  0
   -5.3058   -3.4072   -0.5677 H   0  0  0  0  0  0  0  0  0  0  0  0
   -4.9461   -3.8509    1.1092 H   0  0  0  0  0  0  0  0  0  0  0  0
    1.6606    1.9020    1.2990 H   0  0  0  0  0  0  0  0  0  0  0  0
   -4.8079    3.5662   -0.0097 H   0  0  0  0  0  0  0  0  0  0  0  0
   -3.7680    1.3588   -3.5472 H   0  0  0  0  0  0  0  0  0  0  0  0
    0.8755   -2.1167    0.0281 H   0  0  0  0  0  0  0  0  0  0  0  0
    3.2006   -2.4229   -0.5792 H   0  0  0  0  0  0  0  0  0  0  0  0
   -7.0471   -2.7269    1.8549 H   0  0  0  0  0  0  0  0  0  0  0  0
   -7.4005   -2.2757    0.1753 H   0  0  0  0  0  0  0  0  0  0  0  0
   -7.3658   -3.9826    0.6472 H   0  0  0  0  0  0  0  0  0  0  0  0
   -4.7810    3.3578   -2.4821 H   0  0  0  0  0  0  0  0  0  0  0  0
    5.0970   -1.0967   -2.5447 H   0  0  0  0  0  0  0  0  0  0  0  0
    6.4713   -0.3844    1.4851 H   0  0  0  0  0  0  0  0  0  0  0  0
    7.6242   -1.2908   -2.2627 H   0  0  0  0  0  0  0  0  0  0  0  0
    3.3390    2.8683    2.3055 H   0  0  0  0  0  0  0  0  0  0  0  0
    2.9990    3.4851    0.6240 H   0  0  0  0  0  0  0  0  0  0  0  0
    4.5649    3.7257    1.3839 H   0  0  0  0  0  0  0  0  0  0  0  0
  1 13  1  0  0  0  0
  2 14  1  0  0  0  0
  3 12  2  0  0  0  0
  4 22  1  0  0  0  0
  4 29  1  0  0  0  0
  5  9  1  0  0  0  0
  5 12  1  0  0  0  0
  5 33  1  0  0  0  0
  6 10  1  0  0  0  0
  6 15  1  0  0  0  0
  6 34  1  0  0  0  0
  7  8  1  0  0  0  0
  7 27  1  0  0  0  0
  7 48  1  0  0  0  0
  8 28  2  0  0  0  0
  9 10  1  0  0  0  0
  9 11  1  0  0  0  0
  9 30  1  0  0  0  0
 10 31  1  0  0  0  0
 10 32  1  0  0  0  0
 11 13  2  0  0  0  0
 11 14  1  0  0  0  0
 12 16  1  0  0  0  0
 13 19  1  0  0  0  0
 14 20  2  0  0  0  0
 15 23  1  0  0  0  0
 15 35  1  0  0  0  0
 15 36  1  0  0  0  0
 16 18  2  0  0  0  0
 16 21  1  0  0  0  0
 17 22  2  0  0  0  0
 17 24  1  0  0  0  0
 17 26  1  0  0  0  0
 18 22  1  0  0  0  0
 18 37  1  0  0  0  0
 19 25  2  0  0  0  0
 19 38  1  0  0  0  0
 20 25  1  0  0  0  0
 20 39  1  0  0  0  0
 21 24  2  0  0  0  0
 21 40  1  0  0  0  0
 23 42  1  0  0  0  0
 23 43  1  0  0  0  0
 23 44  1  0  0  0  0
 24 41  1  0  0  0  0
 25 45  1  0  0  0  0
 26 27  2  0  0  0  0
 26 28  1  0  0  0  0
 27 46  1  0  0  0  0
 28 47  1  0  0  0  0
 29 49  1  0  0  0  0
 29 50  1  0  0  0  0
 29 51  1  0  0  0  0
M  END
> <PUBCHEM_COMPOUND_CID>
90385111

> <PUBCHEM_CONFORMER_RMSD>
1

> <PUBCHEM_CONFORMER_DIVERSEORDER>
3
18
8
11
19
21
17
20
16
14
9
10
7
12
5
13
15
2
6
4
1

> <PUBCHEM_MMFF94_PARTIAL_CHARGES>
39
1 -0.19
10 0.27
11 -0.14
12 0.54
13 0.19
14 0.19
15 0.27
16 0.09
17 0.05
18 -0.15
19 -0.15
2 -0.19
20 -0.15
21 -0.15
22 0.08
24 -0.15
25 -0.15
26 -0.05
27 -0.3
28 0.14
29 0.28
3 -0.57
33 0.37
34 0.36
37 0.15
38 0.15
39 0.15
4 -0.36
40 0.15
41 0.15
45 0.15
46 0.15
47 0.15
48 0.27
5 -0.73
6 -0.9
7 0.3
8 -0.71
9 0.44

> <PUBCHEM_EFFECTIVE_ROTOR_COUNT>
9

> <PUBCHEM_PHARMACOPHORE_FEATURES>
10
1 3 acceptor
1 4 acceptor
1 5 donor
1 6 cation
1 6 donor
1 7 donor
1 8 acceptor
5 7 8 26 27 28 rings
6 11 13 14 19 20 25 rings
6 16 17 18 21 22 24 rings

> <PUBCHEM_HEAVY_ATOM_COUNT>
29

> <PUBCHEM_ATOM_DEF_STEREO_COUNT>
1

> <PUBCHEM_ATOM_UDEF_STEREO_COUNT>
0

> <PUBCHEM_BOND_DEF_STEREO_COUNT>
0

> <PUBCHEM_BOND_UDEF_STEREO_COUNT>
0

> <PUBCHEM_ISOTOPIC_ATOM_COUNT>
0

> <PUBCHEM_COMPONENT_COUNT>
1

> <PUBCHEM_CACTVS_TAUTO_COUNT>
7

> <PUBCHEM_CONFORMER_ID>
05632AD700000003

> <PUBCHEM_MMFF94_ENERGY>
68.8112

> <PUBCHEM_FEATURE_SELFOVERLAP>
50.747

> <PUBCHEM_SHAPE_FINGERPRINT>
10165383 225 18262522469083524321
10670039 82 17240199937178195166
11101153 10 17531823474769190077
11497681 19 18128254700018742471
11545043 162 18409448094135236520
12166972 35 18335427910718337416
12403259 415 18335136514261476800
12616971 3 16702023105853793824
13673619 4 18339930423893146771
13690498 29 18409730690130625303
13782708 43 18409449215053837242
14294032 229 17531801352221141781
15064981 194 18335992982655317253
15183329 4 18338514132604440216
15788980 27 17561080302484523840
17844677 252 18410296942860720976
17913733 40 12035454922151845860
21033650 10 17749389247705158048
21267235 1 18202294627484963674
21709351 56 18343862212864603268
21756936 100 16081376219408794192
22393880 68 18408879638118306874
23559900 14 18201714038337988056
25223398 141 18260268581050732550
2838139 119 16443356364633446678
4098825 35 18410295825989986512
46194498 28 18337392772219657620
469060 322 17240478139933015137
497634 4 18342748446393385529
59755656 520 18337679603300057825
6081469 158 18270399512356390911
6086070 43 18334002879303274216

> <PUBCHEM_SHAPE_MULTIPOLES>
550.6
17.87
3.13
1.77
15.15
0.22
-0.75
-7.46
-3.82
-6.09
0.34
-0.69
0.88
3.57

> <PUBCHEM_SHAPE_SELFOVERLAP>
1184.262

> <PUBCHEM_SHAPE_VOLUME>
305.1

> <PUBCHEM_COORDINATE_TYPE>
2
5
10

$$$$
118663005
  -OEChem-05102415153D

 43 45  0     1  0  0  0  0  0999 V2000
   -2.8822    3.4403   -1.1588 F   0  0  0  0  0  0  0  0  0  0  0  0
   -1.6556    3.4513    0.6368 F   0  0  0  0  0  0  0  0  0  0  0  0
   -2.7741    1.5673    0.0672 O   0  0  0  0  0  0  0  0  0  0  0  0
    1.9182   -1.5324    1.8867 O   0  0  0  0  0  0  0  0  0  0  0  0
    2.0988    0.5154    0.8140 N   0  0  0  0  0  0  0  0  0  0  0  0
   -6.2212   -1.4125   -0.1640 N   0  0  0  0  0  0  0  0  0  0  0  0
   -6.0827   -0.7794   -1.3415 N   0  0  0  0  0  0  0  0  0  0  0  0
    3.5027    0.7242    1.0863 C   0  0  1  0  0  0  0  0  0  0  0  0
    4.3734    0.1101    0.0113 C   0  0  0  0  0  0  0  0  0  0  0  0
   -0.0152   -0.6890    0.8625 C   0  0  0  0  0  0  0  0  0  0  0  0
    3.7831    2.2118    1.2888 C   0  0  0  0  0  0  0  0  0  0  0  0
   -2.7060   -0.8344    0.1404 C   0  0  0  0  0  0  0  0  0  0  0  0
    1.3880   -0.6137    1.2371 C   0  0  0  0  0  0  0  0  0  0  0  0
   -2.0871    0.4081    0.2783 C   0  0  0  0  0  0  0  0  0  0  0  0
   -0.7416    0.4807    0.6393 C   0  0  0  0  0  0  0  0  0  0  0  0
   -0.6342   -1.9314    0.7247 C   0  0  0  0  0  0  0  0  0  0  0  0
   -1.9797   -2.0041    0.3640 C   0  0  0  0  0  0  0  0  0  0  0  0
    3.9398    0.0974   -1.3145 C   0  0  0  0  0  0  0  0  0  0  0  0
    5.6092   -0.4432    0.3464 C   0  0  0  0  0  0  0  0  0  0  0  0
   -4.0915   -0.9322   -0.2326 C   0  0  0  0  0  0  0  0  0  0  0  0
    4.7422   -0.4685   -2.3053 C   0  0  0  0  0  0  0  0  0  0  0  0
    6.4116   -1.0093   -0.6445 C   0  0  0  0  0  0  0  0  0  0  0  0
   -5.0581   -1.5299    0.5388 C   0  0  0  0  0  0  0  0  0  0  0  0
    5.9782   -1.0216   -1.9703 C   0  0  0  0  0  0  0  0  0  0  0  0
   -4.7796   -0.4884   -1.3778 C   0  0  0  0  0  0  0  0  0  0  0  0
   -2.0363    2.6833   -0.4133 C   0  0  0  0  0  0  0  0  0  0  0  0
    3.7201    0.2116    2.0325 H   0  0  0  0  0  0  0  0  0  0  0  0
    1.6505    1.1884    0.2006 H   0  0  0  0  0  0  0  0  0  0  0  0
    4.8329    2.3843    1.5499 H   0  0  0  0  0  0  0  0  0  0  0  0
    3.1608    2.6188    2.0934 H   0  0  0  0  0  0  0  0  0  0  0  0
    3.5665    2.7867    0.3809 H   0  0  0  0  0  0  0  0  0  0  0  0
   -0.2756    1.4449    0.8144 H   0  0  0  0  0  0  0  0  0  0  0  0
   -0.0843   -2.8546    0.8884 H   0  0  0  0  0  0  0  0  0  0  0  0
   -2.4407   -2.9834    0.2566 H   0  0  0  0  0  0  0  0  0  0  0  0
    2.9897    0.5339   -1.6091 H   0  0  0  0  0  0  0  0  0  0  0  0
    5.9592   -0.4380    1.3752 H   0  0  0  0  0  0  0  0  0  0  0  0
    4.4065   -0.4754   -3.3382 H   0  0  0  0  0  0  0  0  0  0  0  0
    7.3742   -1.4396   -0.3839 H   0  0  0  0  0  0  0  0  0  0  0  0
   -5.0315   -2.0177    1.5035 H   0  0  0  0  0  0  0  0  0  0  0  0
    6.6034   -1.4613   -2.7419 H   0  0  0  0  0  0  0  0  0  0  0  0
   -4.3895    0.0349   -2.2396 H   0  0  0  0  0  0  0  0  0  0  0  0
   -7.1423   -1.7397    0.0994 H   0  0  0  0  0  0  0  0  0  0  0  0
   -1.1767    2.4286   -1.0434 H   0  0  0  0  0  0  0  0  0  0  0  0
  1 26  1  0  0  0  0
  2 26  1  0  0  0  0
  3 14  1  0  0  0  0
  3 26  1  0  0  0  0
  4 13  2  0  0  0  0
  5  8  1  0  0  0  0
  5 13  1  0  0  0  0
  5 28  1  0  0  0  0
  6  7  1  0  0  0  0
  6 23  1  0  0  0  0
  6 42  1  0  0  0  0
  7 25  2  0  0  0  0
  8  9  1  0  0  0  0
  8 11  1  0  0  0  0
  8 27  1  0  0  0  0
  9 18  2  0  0  0  0
  9 19  1  0  0  0  0
 10 13  1  0  0  0  0
 10 15  2  0  0  0  0
 10 16  1  0  0  0  0
 11 29  1  0  0  0  0
 11 30  1  0  0  0  0
 11 31  1  0  0  0  0
 12 14  2  0  0  0  0
 12 17  1  0  0  0  0
 12 20  1  0  0  0  0
 14 15  1  0  0  0  0
 15 32  1  0  0  0  0
 16 17  2  0  0  0  0
 16 33  1  0  0  0  0
 17 34  1  0  0  0  0
 18 21  1  0  0  0  0
 18 35  1  0  0  0  0
 19 22  2  0  0  0  0
 19 36  1  0  0  0  0
 20 23  2  0  0  0  0
 20 25  1  0  0  0  0
 21 24  2  0  0  0  0
 21 37  1  0  0  0  0
 22 24  1  0  0  0  0
 22 38  1  0  0  0  0
 23 39  1  0  0  0  0
 24 40  1  0  0  0  0
 25 41  1  0  0  0  0
 26 43  1  0  0  0  0
M  END
> <PUBCHEM_COMPOUND_CID>
118663005

> <PUBCHEM_CONFORMER_RMSD>
0.8

> <PUBCHEM_CONFORMER_DIVERSEORDER>
1
44
33
63
46
16
71
56
11
41
69
2
24
30
64
68
36
42
25
59
53
26
58
52
54
70
67
51
38
61
23
19
17
12
66
45
39
48
13
74
32
20
9
57
55
65
27
72
22
29
49
3
60
40
31
37
5
47
14
8
73
18
34
50
35
10
62
7
43
28
21
15
6
4

> <PUBCHEM_MMFF94_PARTIAL_CHARGES>
37
1 -0.34
10 0.09
12 0.05
13 0.54
14 0.08
15 -0.15
16 -0.15
17 -0.15
18 -0.15
19 -0.15
2 -0.34
20 -0.05
21 -0.15
22 -0.15
23 -0.3
24 -0.15
25 0.14
26 0.96
28 0.37
3 -0.36
32 0.15
33 0.15
34 0.15
35 0.15
36 0.15
37 0.15
38 0.15
39 0.15
4 -0.57
40 0.15
41 0.15
42 0.27
5 -0.73
6 0.3
7 -0.71
8 0.44
9 -0.14

> <PUBCHEM_EFFECTIVE_ROTOR_COUNT>
7

> <PUBCHEM_PHARMACOPHORE_FEATURES>
8
1 3 acceptor
1 4 acceptor
1 5 donor
1 6 donor
1 7 acceptor
5 6 7 20 23 25 rings
6 10 12 14 15 16 17 rings
6 9 18 19 21 22 24 rings

> <PUBCHEM_HEAVY_ATOM_COUNT>
26

> <PUBCHEM_ATOM_DEF_STEREO_COUNT>
1

> <PUBCHEM_ATOM_UDEF_STEREO_COUNT>
0

> <PUBCHEM_BOND_DEF_STEREO_COUNT>
0

> <PUBCHEM_BOND_UDEF_STEREO_COUNT>
0

> <PUBCHEM_ISOTOPIC_ATOM_COUNT>
0

> <PUBCHEM_COMPONENT_COUNT>
1

> <PUBCHEM_CACTVS_TAUTO_COUNT>
9

> <PUBCHEM_CONFORMER_ID>
0712A75D00000001

> <PUBCHEM_MMFF94_ENERGY>
71.0613

> <PUBCHEM_FEATURE_SELFOVERLAP>
40.597

> <PUBCHEM_SHAPE_FINGERPRINT>
10670039 82 18186804647616737556
11828532 37 18264210398998009963
12166972 35 17530969128348468733
12236239 1 17095239241761613066
12616971 3 13830125088428327168
12633257 1 9439116508209492670
12788726 201 18261103050710298715
12954195 1 18340491066763041728
13533116 47 16343989130691807762
13540713 5 17898560982488033315
13617811 41 18333452058089641823
13782708 43 17918276462919869814
14294032 229 18116998771963170581
14347332 77 18271521996682538810
14528608 73 16298386902655986478
14910302 57 17775559862250606294
14955137 171 18195256731318486227
15183329 4 18409169892251114322
15475509 8 18272940423213069185
16994733 274 14996268207780344909
17857418 61 15267346240339296863
19311894 1 17984712112719685328
20567600 247 16487251075631480286
20645477 70 17489873743911658162
21033650 10 18046657554541103516
21641784 216 18040992921684305821
22122407 14 14851609864643307830
221357 26 18342174479695888448
22224240 67 8502382144282385479
22393880 68 18338790118307361840
2297311 6 18410295822032473075
23366157 5 17607518034176481435
23559900 14 18340485698544369952
23569914 152 17407660832392820359
25147074 1 17896029945428300594
4058900 60 17023178272085151859
4098825 35 17632583747052226040
46194498 28 18202283641327664604
474 4 16660644051205810562
5281201 14 18130791170380558816
5364581 5 8789728461040135534
5718773 13 17559968628243375534
59755656 215 18410009931487055974
6608658 132 17603871048511747276

> <PUBCHEM_SHAPE_MULTIPOLES>
493.84
15.39
2.63
1.66
3.8
2.99
-0.53
-5.96
-7.11
-2.29
0.02
1.77
-0.23
1.57

> <PUBCHEM_SHAPE_SELFOVERLAP>
1072.755

> <PUBCHEM_SHAPE_VOLUME>
270.4

> <PUBCHEM_COORDINATE_TYPE>
2
5
10

$$$$
118662930
  -OEChem-05102415153D

 47 49  0     1  0  0  0  0  0999 V2000
    2.8692    1.7154   -0.2800 O   0  0  0  0  0  0  0  0  0  0  0  0
   -3.4649    2.8112   -0.2408 O   0  0  0  0  0  0  0  0  0  0  0  0
   -1.7256   -1.6592   -1.8408 O   0  0  0  0  0  0  0  0  0  0  0  0
   -1.9696    0.4371   -0.8801 N   0  0  0  0  0  0  0  0  0  0  0  0
    6.1339   -1.0839    1.2415 N   0  0  0  0  0  0  0  0  0  0  0  0
    6.5570   -0.4431    0.1386 N   0  0  0  0  0  0  0  0  0  0  0  0
   -3.3849    0.5761   -1.1384 C   0  0  1  0  0  0  0  0  0  0  0  0
   -4.1974   -0.0225   -0.0105 C   0  0  0  0  0  0  0  0  0  0  0  0
   -3.7441    2.0404   -1.4051 C   0  0  0  0  0  0  0  0  0  0  0  0
    0.1890   -0.6862   -0.8997 C   0  0  0  0  0  0  0  0  0  0  0  0
   -1.2217   -0.6859   -1.2527 C   0  0  0  0  0  0  0  0  0  0  0  0
    2.8946   -0.6874   -0.2191 C   0  0  0  0  0  0  0  0  0  0  0  0
    2.2251    0.5208   -0.4143 C   0  0  0  0  0  0  0  0  0  0  0  0
    0.8723    0.5213   -0.7547 C   0  0  0  0  0  0  0  0  0  0  0  0
    0.8586   -1.8943   -0.7045 C   0  0  0  0  0  0  0  0  0  0  0  0
   -5.4135   -0.6492   -0.2835 C   0  0  0  0  0  0  0  0  0  0  0  0
   -3.7304    0.0524    1.3017 C   0  0  0  0  0  0  0  0  0  0  0  0
    2.2113   -1.8948   -0.3644 C   0  0  0  0  0  0  0  0  0  0  0  0
    4.2885   -0.7108    0.1340 C   0  0  0  0  0  0  0  0  0  0  0  0
   -6.1623   -1.2010    0.7561 C   0  0  0  0  0  0  0  0  0  0  0  0
   -4.4792   -0.4994    2.3412 C   0  0  0  0  0  0  0  0  0  0  0  0
   -5.6954   -1.1259    2.0684 C   0  0  0  0  0  0  0  0  0  0  0  0
    4.7833   -1.2693    1.2873 C   0  0  0  0  0  0  0  0  0  0  0  0
    5.4253   -0.2177   -0.5341 C   0  0  0  0  0  0  0  0  0  0  0  0
    2.3678    2.6126    0.7079 C   0  0  0  0  0  0  0  0  0  0  0  0
    3.5130    3.4433    1.2463 C   0  0  0  0  0  0  0  0  0  0  0  0
   -3.5981    0.0072   -2.0527 H   0  0  0  0  0  0  0  0  0  0  0  0
   -1.5380    1.1636   -0.3181 H   0  0  0  0  0  0  0  0  0  0  0  0
   -3.1501    2.4420   -2.2329 H   0  0  0  0  0  0  0  0  0  0  0  0
   -4.8072    2.1498   -1.6442 H   0  0  0  0  0  0  0  0  0  0  0  0
    0.3851    1.4742   -0.9417 H   0  0  0  0  0  0  0  0  0  0  0  0
    0.3435   -2.8457   -0.8088 H   0  0  0  0  0  0  0  0  0  0  0  0
   -5.7893   -0.7125   -1.3012 H   0  0  0  0  0  0  0  0  0  0  0  0
   -2.7946    0.5449    1.5502 H   0  0  0  0  0  0  0  0  0  0  0  0
    2.7144   -2.8483   -0.2201 H   0  0  0  0  0  0  0  0  0  0  0  0
   -7.1094   -1.6884    0.5439 H   0  0  0  0  0  0  0  0  0  0  0  0
   -4.1174   -0.4386    3.3634 H   0  0  0  0  0  0  0  0  0  0  0  0
   -6.2789   -1.5546    2.8778 H   0  0  0  0  0  0  0  0  0  0  0  0
    4.3130   -1.7702    2.1222 H   0  0  0  0  0  0  0  0  0  0  0  0
    5.4806    0.2967   -1.4833 H   0  0  0  0  0  0  0  0  0  0  0  0
   -3.7026    3.7316   -0.4453 H   0  0  0  0  0  0  0  0  0  0  0  0
    1.6188    3.2661    0.2477 H   0  0  0  0  0  0  0  0  0  0  0  0
    1.8993    2.0662    1.5361 H   0  0  0  0  0  0  0  0  0  0  0  0
    6.8237   -1.3677    1.9260 H   0  0  0  0  0  0  0  0  0  0  0  0
    4.0001    3.9986    0.4380 H   0  0  0  0  0  0  0  0  0  0  0  0
    3.1611    4.1530    2.0002 H   0  0  0  0  0  0  0  0  0  0  0  0
    4.2770    2.8001    1.6955 H   0  0  0  0  0  0  0  0  0  0  0  0
  1 13  1  0  0  0  0
  1 25  1  0  0  0  0
  2  9  1  0  0  0  0
  2 41  1  0  0  0  0
  3 11  2  0  0  0  0
  4  7  1  0  0  0  0
  4 11  1  0  0  0  0
  4 28  1  0  0  0  0
  5  6  1  0  0  0  0
  5 23  1  0  0  0  0
  5 44  1  0  0  0  0
  6 24  2  0  0  0  0
  7  8  1  0  0  0  0
  7  9  1  0  0  0  0
  7 27  1  0  0  0  0
  8 16  2  0  0  0  0
  8 17  1  0  0  0  0
  9 29  1  0  0  0  0
  9 30  1  0  0  0  0
 10 11  1  0  0  0  0
 10 14  2  0  0  0  0
 10 15  1  0  0  0  0
 12 13  2  0  0  0  0
 12 18  1  0  0  0  0
 12 19  1  0  0  0  0
 13 14  1  0  0  0  0
 14 31  1  0  0  0  0
 15 18  2  0  0  0  0
 15 32  1  0  0  0  0
 16 20  1  0  0  0  0
 16 33  1  0  0  0  0
 17 21  2  0  0  0  0
 17 34  1  0  0  0  0
 18 35  1  0  0  0  0
 19 23  2  0  0  0  0
 19 24  1  0  0  0  0
 20 22  2  0  0  0  0
 20 36  1  0  0  0  0
 21 22  1  0  0  0  0
 21 37  1  0  0  0  0
 22 38  1  0  0  0  0
 23 39  1  0  0  0  0
 24 40  1  0  0  0  0
 25 26  1  0  0  0  0
 25 42  1  0  0  0  0
 25 43  1  0  0  0  0
 26 45  1  0  0  0  0
 26 46  1  0  0  0  0
 26 47  1  0  0  0  0
M  END
> <PUBCHEM_COMPOUND_CID>
118662930

> <PUBCHEM_CONFORMER_RMSD>
0.8

> <PUBCHEM_CONFORMER_DIVERSEORDER>
1
4
40
11
32
13
18
27
17
29
6
38
42
21
23
39
12
41
20
26
31
19
33
37
5
10
22
2
14
16
36
35
15
28
25
24
9
3
34
30
7
8

> <PUBCHEM_MMFF94_PARTIAL_CHARGES>
38
1 -0.36
10 0.09
11 0.54
12 0.05
13 0.08
14 -0.15
15 -0.15
16 -0.15
17 -0.15
18 -0.15
19 -0.05
2 -0.68
20 -0.15
21 -0.15
22 -0.15
23 -0.3
24 0.14
25 0.28
28 0.37
3 -0.57
31 0.15
32 0.15
33 0.15
34 0.15
35 0.15
36 0.15
37 0.15
38 0.15
39 0.15
4 -0.73
40 0.15
41 0.4
44 0.27
5 0.3
6 -0.71
7 0.44
8 -0.14
9 0.28

> <PUBCHEM_EFFECTIVE_ROTOR_COUNT>
8

> <PUBCHEM_PHARMACOPHORE_FEATURES>
10
1 1 acceptor
1 2 acceptor
1 2 donor
1 3 acceptor
1 4 donor
1 5 donor
1 6 acceptor
5 5 6 19 23 24 rings
6 10 12 13 14 15 18 rings
6 8 16 17 20 21 22 rings

> <PUBCHEM_HEAVY_ATOM_COUNT>
26

> <PUBCHEM_ATOM_DEF_STEREO_COUNT>
1

> <PUBCHEM_ATOM_UDEF_STEREO_COUNT>
0

> <PUBCHEM_BOND_DEF_STEREO_COUNT>
0

> <PUBCHEM_BOND_UDEF_STEREO_COUNT>
0

> <PUBCHEM_ISOTOPIC_ATOM_COUNT>
0

> <PUBCHEM_COMPONENT_COUNT>
1

> <PUBCHEM_CACTVS_TAUTO_COUNT>
9

> <PUBCHEM_CONFORMER_ID>
0712A71200000001

> <PUBCHEM_MMFF94_ENERGY>
70.2636

> <PUBCHEM_FEATURE_SELFOVERLAP>
50.75

> <PUBCHEM_SHAPE_FINGERPRINT>
10 15 18408038529103361290
10319926 262 17894619353793999505
11315181 36 17095248016585176575
11545043 162 17967530155806493301
11646440 116 18060136531704544400
12107698 1 18335138691757330313
12166972 35 17703793621940867186
12507557 5 18272646818858402357
12596602 18 17822007580257419232
12616971 3 17917991711093777461
12633257 1 18060699519711531604
13140716 1 18269548502513004406
13540713 5 17914320536458173030
13583140 156 18335133155681427919
13590594 115 18343299237279191168
13782708 43 18040155106318562282
13899415 154 18413674608949426092
14341114 176 18113904895921898437
14341114 328 17417544609045475643
14466204 15 18268700615876271816
14739800 52 16628542838538782720
14849402 71 18200032988170488656
14950920 106 18337968873594782281
14955137 171 18342465816086432638
15081414 286 17988366975443084726
15183329 4 15554160377248370918
15188451 53 17385725816095326467
15238133 3 16702312268653218096
15475509 35 17530950385686234746
15475509 8 17631472137065910572
1601671 61 18200866293587806182
17857418 61 15502374513034885866
18222031 100 15213017180429967215
18785283 64 18337674230185479604
200 152 11746937590032984167
21033648 29 18058150774559750745
21033650 10 14260808246271092130
21623969 137 18114181913256000874
21756936 100 15985102994809344279
22122407 14 18060146410388502929
22393880 68 9799393508598665901
23559900 14 16950568835026630613
23569943 247 17630047040794906102
25147074 1 17845082055415142932
2838139 119 14548434965455511282
3178227 256 18410295818017197802
350125 39 18411698815664295476
38570 142 17843422914192565164
392239 28 18335994133595081243
437795 51 18187087304252871072
465052 167 18113338600875073918
5081480 168 16413257134253393389
5104073 3 18199183077976035514
5718773 13 17241621687919344651
59755656 520 16845573106272446231
6009941 240 17896875448569335604
6126387 218 13182743586140759886
7495541 125 17676491653117291526
8863177 126 18114185293004509210
960060 61 11386359374579974569

> <PUBCHEM_SHAPE_MULTIPOLES>
502.52
15.64
2.59
1.72
0.4
2.62
0.59
-3.56
6.93
1.59
0.36
-1.96
-0.19
1.55

> <PUBCHEM_SHAPE_SELFOVERLAP>
1082.804

> <PUBCHEM_SHAPE_VOLUME>
276.8

> <PUBCHEM_COORDINATE_TYPE>
2
5
10

$$$$
118662887
  -OEChem-05102415153D

 49 51  0     1  0  0  0  0  0999 V2000
   -2.8345    2.4970    1.3897 O   0  0  0  0  0  0  0  0  0  0  0  0
    1.9379   -1.5030    1.8941 O   0  0  0  0  0  0  0  0  0  0  0  0
    2.1367    0.5686    0.8715 N   0  0  0  0  0  0  0  0  0  0  0  0
   -6.2449   -0.9175   -0.0471 N   0  0  0  0  0  0  0  0  0  0  0  0
   -6.0243   -0.9283   -1.3728 N   0  0  0  0  0  0  0  0  0  0  0  0
   -2.0508    0.5118    0.3372 C   0  0  0  0  0  0  0  0  0  0  0  0
   -2.7859    1.7990    0.1383 C   0  0  2  0  0  0  0  0  0  0  0  0
   -2.6813   -0.7214    0.1714 C   0  0  0  0  0  0  0  0  0  0  0  0
   -2.1573    2.7376   -0.9105 C   0  0  0  0  0  0  0  0  0  0  0  0
   -0.7041    0.5638    0.6975 C   0  0  0  0  0  0  0  0  0  0  0  0
    0.0119   -0.6174    0.8919 C   0  0  0  0  0  0  0  0  0  0  0  0
    3.5427    0.7579    1.1480 C   0  0  1  0  0  0  0  0  0  0  0  0
   -1.9652   -1.9026    0.3661 C   0  0  0  0  0  0  0  0  0  0  0  0
   -4.0690   -0.8025   -0.1988 C   0  0  0  0  0  0  0  0  0  0  0  0
   -0.6186   -1.8506    0.7260 C   0  0  0  0  0  0  0  0  0  0  0  0
    1.4159   -0.5640    1.2674 C   0  0  0  0  0  0  0  0  0  0  0  0
    4.4073    0.1622    0.0579 C   0  0  0  0  0  0  0  0  0  0  0  0
   -2.1710    2.1555   -2.3162 C   0  0  0  0  0  0  0  0  0  0  0  0
    3.8367    2.2375    1.3865 C   0  0  0  0  0  0  0  0  0  0  0  0
   -5.1065   -0.8431    0.7005 C   0  0  0  0  0  0  0  0  0  0  0  0
   -4.6933   -0.8579   -1.4592 C   0  0  0  0  0  0  0  0  0  0  0  0
    3.9732    0.1858   -1.2676 C   0  0  0  0  0  0  0  0  0  0  0  0
    5.6382   -0.4104    0.3786 C   0  0  0  0  0  0  0  0  0  0  0  0
    4.7701   -0.3632   -2.2724 C   0  0  0  0  0  0  0  0  0  0  0  0
    6.4349   -0.9594   -0.6261 C   0  0  0  0  0  0  0  0  0  0  0  0
    6.0010   -0.9355   -1.9516 C   0  0  0  0  0  0  0  0  0  0  0  0
   -3.8300    1.6557   -0.1505 H   0  0  0  0  0  0  0  0  0  0  0  0
   -2.7170    3.6821   -0.9125 H   0  0  0  0  0  0  0  0  0  0  0  0
   -1.1332    3.0149   -0.6343 H   0  0  0  0  0  0  0  0  0  0  0  0
   -0.2419    1.5320    0.8671 H   0  0  0  0  0  0  0  0  0  0  0  0
    3.7557    0.2204    2.0812 H   0  0  0  0  0  0  0  0  0  0  0  0
   -2.4399   -2.8730    0.2402 H   0  0  0  0  0  0  0  0  0  0  0  0
   -0.0773   -2.7824    0.8682 H   0  0  0  0  0  0  0  0  0  0  0  0
    1.6939    1.2610    0.2760 H   0  0  0  0  0  0  0  0  0  0  0  0
   -1.5552    1.2537   -2.3847 H   0  0  0  0  0  0  0  0  0  0  0  0
   -1.7734    2.8856   -3.0284 H   0  0  0  0  0  0  0  0  0  0  0  0
   -3.1901    1.9035   -2.6260 H   0  0  0  0  0  0  0  0  0  0  0  0
    3.6249    2.8363    0.4929 H   0  0  0  0  0  0  0  0  0  0  0  0
    3.2184    2.6304    2.2011 H   0  0  0  0  0  0  0  0  0  0  0  0
    4.8881    2.3940    1.6510 H   0  0  0  0  0  0  0  0  0  0  0  0
   -3.1342    1.8713    2.0714 H   0  0  0  0  0  0  0  0  0  0  0  0
   -5.1424   -0.8256    1.7810 H   0  0  0  0  0  0  0  0  0  0  0  0
   -4.2367   -0.8492   -2.4390 H   0  0  0  0  0  0  0  0  0  0  0  0
    3.0270    0.6379   -1.5510 H   0  0  0  0  0  0  0  0  0  0  0  0
    5.9886   -0.4334    1.4071 H   0  0  0  0  0  0  0  0  0  0  0  0
   -7.2017   -0.9633    0.2805 H   0  0  0  0  0  0  0  0  0  0  0  0
    4.4340   -0.3419   -3.3050 H   0  0  0  0  0  0  0  0  0  0  0  0
    7.3936   -1.4047   -0.3766 H   0  0  0  0  0  0  0  0  0  0  0  0
    6.6219   -1.3620   -2.7340 H   0  0  0  0  0  0  0  0  0  0  0  0
  1  7  1  0  0  0  0
  1 41  1  0  0  0  0
  2 16  2  0  0  0  0
  3 12  1  0  0  0  0
  3 16  1  0  0  0  0
  3 34  1  0  0  0  0
  4  5  1  0  0  0  0
  4 20  1  0  0  0  0
  4 46  1  0  0  0  0
  5 21  2  0  0  0  0
  6  7  1  0  0  0  0
  6  8  2  0  0  0  0
  6 10  1  0  0  0  0
  7  9  1  0  0  0  0
  7 27  1  0  0  0  0
  8 13  1  0  0  0  0
  8 14  1  0  0  0  0
  9 18  1  0  0  0  0
  9 28  1  0  0  0  0
  9 29  1  0  0  0  0
 10 11  2  0  0  0  0
 10 30  1  0  0  0  0
 11 15  1  0  0  0  0
 11 16  1  0  0  0  0
 12 17  1  0  0  0  0
 12 19  1  0  0  0  0
 12 31  1  0  0  0  0
 13 15  2  0  0  0  0
 13 32  1  0  0  0  0
 14 20  2  0  0  0  0
 14 21  1  0  0  0  0
 15 33  1  0  0  0  0
 17 22  2  0  0  0  0
 17 23  1  0  0  0  0
 18 35  1  0  0  0  0
 18 36  1  0  0  0  0
 18 37  1  0  0  0  0
 19 38  1  0  0  0  0
 19 39  1  0  0  0  0
 19 40  1  0  0  0  0
 20 42  1  0  0  0  0
 21 43  1  0  0  0  0
 22 24  1  0  0  0  0
 22 44  1  0  0  0  0
 23 25  2  0  0  0  0
 23 45  1  0  0  0  0
 24 26  2  0  0  0  0
 24 47  1  0  0  0  0
 25 26  1  0  0  0  0
 25 48  1  0  0  0  0
 26 49  1  0  0  0  0
M  END
> <PUBCHEM_COMPOUND_CID>
118662887

> <PUBCHEM_CONFORMER_RMSD>
0.8

> <PUBCHEM_CONFORMER_DIVERSEORDER>
1
51
59
68
43
36
44
32
66
58
8
54
50
69
10
41
7
57
23
22
74
19
55
53
70
56
72
64
35
38
46
52
6
40
47
20
67
33
14
26
17
76
9
71
62
27
49
61
12
63
37
18
73
31
39
24
15
29
65
75
16
11
34
45
25
42
30
21
13
48
4
3
60
5
2
28

> <PUBCHEM_MMFF94_PARTIAL_CHARGES>
36
1 -0.68
10 -0.15
11 0.09
12 0.44
13 -0.15
14 -0.05
15 -0.15
16 0.54
17 -0.14
2 -0.57
20 -0.3
21 0.14
22 -0.15
23 -0.15
24 -0.15
25 -0.15
26 -0.15
3 -0.73
30 0.15
32 0.15
33 0.15
34 0.37
4 0.3
41 0.4
42 0.15
43 0.15
44 0.15
45 0.15
46 0.27
47 0.15
48 0.15
49 0.15
5 -0.71
6 -0.14
7 0.42
8 0.05

> <PUBCHEM_EFFECTIVE_ROTOR_COUNT>
7

> <PUBCHEM_PHARMACOPHORE_FEATURES>
10
1 1 acceptor
1 1 donor
1 18 hydrophobe
1 2 acceptor
1 3 donor
1 4 donor
1 5 acceptor
5 4 5 14 20 21 rings
6 17 22 23 24 25 26 rings
6 6 8 10 11 13 15 rings

> <PUBCHEM_HEAVY_ATOM_COUNT>
26

> <PUBCHEM_ATOM_DEF_STEREO_COUNT>
1

> <PUBCHEM_ATOM_UDEF_STEREO_COUNT>
1

> <PUBCHEM_BOND_DEF_STEREO_COUNT>
0

> <PUBCHEM_BOND_UDEF_STEREO_COUNT>
0

> <PUBCHEM_ISOTOPIC_ATOM_COUNT>
0

> <PUBCHEM_COMPONENT_COUNT>
1

> <PUBCHEM_CACTVS_TAUTO_COUNT>
9

> <PUBCHEM_CONFORMER_ID>
0712A6E700000001

> <PUBCHEM_MMFF94_ENERGY>
66.1297

> <PUBCHEM_FEATURE_SELFOVERLAP>
50.747

> <PUBCHEM_SHAPE_FINGERPRINT>
10366900 7 17822010912761963064
10670039 82 17894913993077262868
10906281 52 17822294531828953137
11828532 37 18263930019158780107
11991303 11 17458912646760967907
12107698 1 18202565085865103156
12166972 35 16805611407620874559
12390115 104 18340491041742623369
12616971 3 13686291379545067040
12633257 1 12175616291508497824
12788726 201 17676474030835269393
12954195 1 18271530801497098321
13533116 47 16343706556198103682
13540713 5 18046898291352338763
13617811 41 18187085065915566015
13782708 43 17989489632022351982
13911987 19 16950565502068847923
13994607 96 16805617953272560297
14294032 229 17970911060042922053
14347332 77 18201717306201516251
14840074 17 17240493502429945533
14910302 57 17775559866487499374
14955137 171 18195818581844610843
15183329 4 18411141320926339090
15575132 122 17458062642793905533
15840311 113 18271809081989247489
17857418 61 15339121259820223647
1813 80 13830139424644169882
19958102 18 18409168779638521398
20567600 247 16559028294246464838
20645477 70 17561085817802715770
21623969 137 15626229009294026110
21641784 216 17967808323917109485
22122407 14 14851890240103193868
221357 26 18342737429591365504
23366157 5 17461712900976150483
23559900 14 18268709579483224184
23569914 152 17407378257930823191
25147074 1 18116707426639014635
3004659 81 16630535055018898686
4058900 60 16805879594285509811
4098825 35 17704077291672616576
46194498 28 18202282546074106804
463206 1 15338829876896994734
474 4 16588023502929972082
5281201 14 18131635590984153016
5364581 5 9294415297669181702
59755656 215 18413107238509728423
6081469 158 17275378816763452485
6608658 132 17313668148526133764

> <PUBCHEM_SHAPE_MULTIPOLES>
508.39
15.3
2.29
1.93
7.02
1.53
-0.78
-4.27
-6.56
-1.86
0.12
1.47
0.39
0.9

> <PUBCHEM_SHAPE_SELFOVERLAP>
1094.411

> <PUBCHEM_SHAPE_VOLUME>
281.3

> <PUBCHEM_COORDINATE_TYPE>
2
5
10

$$$$
118662995
  -OEChem-05102415153D

 42 44  0     1  0  0  0  0  0999 V2000
    6.2456   -2.8503   -0.1306 F   0  0  0  0  0  0  0  0  0  0  0  0
    1.1724    1.2132    1.9162 O   0  0  0  0  0  0  0  0  0  0  0  0
    1.5665    1.3870   -0.3622 N   0  0  0  0  0  0  0  0  0  0  0  0
   -6.4008   -1.1143   -1.3129 N   0  0  0  0  0  0  0  0  0  0  0  0
   -6.9180   -0.5195   -0.2243 N   0  0  0  0  0  0  0  0  0  0  0  0
    2.9649    1.7387   -0.2643 C   0  0  1  0  0  0  0  0  0  0  0  0
    3.8450    0.5080   -0.2290 C   0  0  0  0  0  0  0  0  0  0  0  0
   -0.6318    0.7759    0.4839 C   0  0  0  0  0  0  0  0  0  0  0  0
   -3.2827    0.0708   -0.0250 C   0  0  0  0  0  0  0  0  0  0  0  0
   -2.6613   -0.3535    1.1496 C   0  0  0  0  0  0  0  0  0  0  0  0
    3.3451    2.6992   -1.3892 C   0  0  0  0  0  0  0  0  0  0  0  0
    0.7501    1.1439    0.7484 C   0  0  0  0  0  0  0  0  0  0  0  0
   -1.3358   -0.0010    1.4040 C   0  0  0  0  0  0  0  0  0  0  0  0
   -1.2532    1.2002   -0.6907 C   0  0  0  0  0  0  0  0  0  0  0  0
   -2.5785    0.8474   -0.9453 C   0  0  0  0  0  0  0  0  0  0  0  0
   -4.6481   -0.2798   -0.3117 C   0  0  0  0  0  0  0  0  0  0  0  0
    3.4862   -0.6275   -0.9555 C   0  0  0  0  0  0  0  0  0  0  0  0
    5.0150    0.5089    0.5306 C   0  0  0  0  0  0  0  0  0  0  0  0
   -3.3835   -1.1880    2.1588 C   0  0  0  0  0  0  0  0  0  0  0  0
    4.2975   -1.7618   -0.9227 C   0  0  0  0  0  0  0  0  0  0  0  0
    5.8262   -0.6255    0.5636 C   0  0  0  0  0  0  0  0  0  0  0  0
   -5.0453   -0.9997   -1.4121 C   0  0  0  0  0  0  0  0  0  0  0  0
   -5.8425   -0.0116    0.3834 C   0  0  0  0  0  0  0  0  0  0  0  0
    5.4674   -1.7607   -0.1631 C   0  0  0  0  0  0  0  0  0  0  0  0
    3.0900    2.2723    0.6870 H   0  0  0  0  0  0  0  0  0  0  0  0
    1.2037    1.2221   -1.2956 H   0  0  0  0  0  0  0  0  0  0  0  0
    3.2234    2.2310   -2.3729 H   0  0  0  0  0  0  0  0  0  0  0  0
    2.7115    3.5928   -1.3683 H   0  0  0  0  0  0  0  0  0  0  0  0
    4.3887    3.0197   -1.2995 H   0  0  0  0  0  0  0  0  0  0  0  0
   -0.8529   -0.3358    2.3191 H   0  0  0  0  0  0  0  0  0  0  0  0
   -0.7523    1.8323   -1.4181 H   0  0  0  0  0  0  0  0  0  0  0  0
   -3.0469    1.1983   -1.8622 H   0  0  0  0  0  0  0  0  0  0  0  0
    2.5895   -0.6540   -1.5681 H   0  0  0  0  0  0  0  0  0  0  0  0
    5.3067    1.3876    1.0998 H   0  0  0  0  0  0  0  0  0  0  0  0
   -3.8828   -2.0408    1.6870 H   0  0  0  0  0  0  0  0  0  0  0  0
   -2.6928   -1.6081    2.8990 H   0  0  0  0  0  0  0  0  0  0  0  0
   -4.1163   -0.5847    2.7037 H   0  0  0  0  0  0  0  0  0  0  0  0
    4.0203   -2.6450   -1.4907 H   0  0  0  0  0  0  0  0  0  0  0  0
    6.7372   -0.6251    1.1547 H   0  0  0  0  0  0  0  0  0  0  0  0
   -4.5039   -1.4351   -2.2406 H   0  0  0  0  0  0  0  0  0  0  0  0
   -5.9807    0.5359    1.3052 H   0  0  0  0  0  0  0  0  0  0  0  0
   -7.0331   -1.5831   -1.9495 H   0  0  0  0  0  0  0  0  0  0  0  0
  1 24  1  0  0  0  0
  2 12  2  0  0  0  0
  3  6  1  0  0  0  0
  3 12  1  0  0  0  0
  3 26  1  0  0  0  0
  4  5  1  0  0  0  0
  4 22  1  0  0  0  0
  4 42  1  0  0  0  0
  5 23  2  0  0  0  0
  6  7  1  0  0  0  0
  6 11  1  0  0  0  0
  6 25  1  0  0  0  0
  7 17  2  0  0  0  0
  7 18  1  0  0  0  0
  8 12  1  0  0  0  0
  8 13  2  0  0  0  0
  8 14  1  0  0  0  0
  9 10  2  0  0  0  0
  9 15  1  0  0  0  0
  9 16  1  0  0  0  0
 10 13  1  0  0  0  0
 10 19  1  0  0  0  0
 11 27  1  0  0  0  0
 11 28  1  0  0  0  0
 11 29  1  0  0  0  0
 13 30  1  0  0  0  0
 14 15  2  0  0  0  0
 14 31  1  0  0  0  0
 15 32  1  0  0  0  0
 16 22  2  0  0  0  0
 16 23  1  0  0  0  0
 17 20  1  0  0  0  0
 17 33  1  0  0  0  0
 18 21  2  0  0  0  0
 18 34  1  0  0  0  0
 19 35  1  0  0  0  0
 19 36  1  0  0  0  0
 19 37  1  0  0  0  0
 20 24  2  0  0  0  0
 20 38  1  0  0  0  0
 21 24  1  0  0  0  0
 21 39  1  0  0  0  0
 22 40  1  0  0  0  0
 23 41  1  0  0  0  0
M  END
> <PUBCHEM_COMPOUND_CID>
118662995

> <PUBCHEM_CONFORMER_RMSD>
0.8

> <PUBCHEM_CONFORMER_DIVERSEORDER>
1
9
5
18
17
16
12
11
3
8
15
6
4
13
14
7
2
10

> <PUBCHEM_MMFF94_PARTIAL_CHARGES>
34
1 -0.19
10 -0.14
12 0.54
13 -0.15
14 -0.15
15 -0.15
16 -0.05
17 -0.15
18 -0.15
19 0.14
2 -0.57
20 -0.15
21 -0.15
22 -0.3
23 0.14
24 0.19
26 0.37
3 -0.73
30 0.15
31 0.15
32 0.15
33 0.15
34 0.15
38 0.15
39 0.15
4 0.3
40 0.15
41 0.15
42 0.27
5 -0.71
6 0.44
7 -0.14
8 0.09
9 0.05

> <PUBCHEM_EFFECTIVE_ROTOR_COUNT>
5

> <PUBCHEM_PHARMACOPHORE_FEATURES>
7
1 2 acceptor
1 3 donor
1 4 donor
1 5 acceptor
5 4 5 16 22 23 rings
6 7 17 18 20 21 24 rings
6 8 9 10 13 14 15 rings

> <PUBCHEM_HEAVY_ATOM_COUNT>
24

> <PUBCHEM_ATOM_DEF_STEREO_COUNT>
1

> <PUBCHEM_ATOM_UDEF_STEREO_COUNT>
0

> <PUBCHEM_BOND_DEF_STEREO_COUNT>
0

> <PUBCHEM_BOND_UDEF_STEREO_COUNT>
0

> <PUBCHEM_ISOTOPIC_ATOM_COUNT>
0

> <PUBCHEM_COMPONENT_COUNT>
1

> <PUBCHEM_CACTVS_TAUTO_COUNT>
20

> <PUBCHEM_CONFORMER_ID>
0712A75300000001

> <PUBCHEM_MMFF94_ENERGY>
59.8572

> <PUBCHEM_FEATURE_SELFOVERLAP>
35.522

> <PUBCHEM_SHAPE_FINGERPRINT>
10 15 13758066403358260994
10165383 225 11743838093436651856
10319926 262 14548472250076637100
10670039 82 15357970123225053294
11595378 159 15123515757250314858
11796584 16 17603586365594879746
12166972 35 18343301449181443344
12236239 1 17561084708983780593
12390115 104 17095792215260360957
12596602 18 16415481553734844866
12760667 363 18410860923410965161
12892183 10 13973698182326648248
12954195 1 17749666282134044893
13533116 47 18272087219100836872
13685833 64 18412545418491018723
13782708 43 18410293644626706195
14251740 57 17203058387463916766
14251751 18 17989199365458076279
14341114 328 15841545267945103906
14347332 77 18411697656413885685
14528608 73 12685094795405323309
15119646 104 18202285801152713599
15183329 4 17458341918462432577
15188451 53 17775001254698895250
15475509 8 17967251962749494629
15510800 12 18336840705909205874
17857418 61 17847062203116700959
1813 80 17275114950135193512
19784866 240 18131072618975263013
20028762 73 17917712353953416310
20567600 234 12103556498478735339
20567600 247 18201430398397254919
20645477 70 18334857238445256132
21307412 95 17968104096550005603
21315764 119 16153705388713908098
21637258 2 17774994709426991341
21781051 124 16153721928917484009
22061861 79 18259987093315207031
221357 26 17822006510552509068
2215653 11 17967814954945264866
22849339 104 16805895086317131139
2303208 19 17168155576161431209
23522609 53 17985575405552119657
23536379 177 18343865528753649921
23559900 14 17677053554677212364
23569943 247 18337952282284759163
29717793 49 18333448754916944965
3004659 81 18131359617638794820
3411729 13 15768633456346433304
3472631 163 11891345235606979426
34797466 226 17458909357094749133
376196 1 16593383845444026516
3886686 26 15691844358367328374
4015057 19 18336264660600011825
439807 62 18057598966622472911
46194498 28 17967531302926901892
463206 1 18201152251724923014
5104073 3 16056035904674656739
531348 171 18341611495883752253
5718773 13 18264485084449220114
59682541 52 18334010622628252933
59755656 215 17312817160806533219
6025842 7 18336269054636580932
6608658 132 14562805500483111615
8988823 20 17917989512339768336
960060 61 18339084885875362453

> <PUBCHEM_SHAPE_MULTIPOLES>
465.82
17
2.08
1.52
5.27
0.04
-0.4
-9.32
4.06
-3.89
0.54
1.12
-0.18
0.21

> <PUBCHEM_SHAPE_SELFOVERLAP>
1015.498

> <PUBCHEM_SHAPE_VOLUME>
255.3

> <PUBCHEM_COORDINATE_TYPE>
2
5
10

$$$$
118662903
  -OEChem-05102415153D

 48 50  0     1  0  0  0  0  0999 V2000
   -3.9219    0.8295    2.1560 O   0  0  0  0  0  0  0  0  0  0  0  0
   -3.3419    3.8707   -0.9002 O   0  0  0  0  0  0  0  0  0  0  0  0
   -1.4925    0.7894   -2.1149 O   0  0  0  0  0  0  0  0  0  0  0  0
    3.1797   -1.1392   -1.7640 O   0  0  0  0  0  0  0  0  0  0  0  0
   -1.9586    1.3535    0.0847 N   0  0  0  0  0  0  0  0  0  0  0  0
    6.1554   -0.2438    1.5763 N   0  0  0  0  0  0  0  0  0  0  0  0
    6.6485    0.1756    0.3985 N   0  0  0  0  0  0  0  0  0  0  0  0
   -3.3827    1.5617   -0.0964 C   0  0  1  0  0  0  0  0  0  0  0  0
   -4.1679    0.5559    0.7726 C   0  0  1  0  0  0  0  0  0  0  0  0
   -3.7219    3.0308    0.1824 C   0  0  0  0  0  0  0  0  0  0  0  0
   -3.7887   -0.8881    0.5327 C   0  0  0  0  0  0  0  0  0  0  0  0
   -1.1294    0.9804   -0.9572 C   0  0  0  0  0  0  0  0  0  0  0  0
    0.2995    0.7817   -0.6026 C   0  0  0  0  0  0  0  0  0  0  0  0
   -4.4611   -1.6339   -0.4356 C   0  0  0  0  0  0  0  0  0  0  0  0
   -2.7669   -1.4743    1.2796 C   0  0  0  0  0  0  0  0  0  0  0  0
    2.9836    0.4115    0.0621 C   0  0  0  0  0  0  0  0  0  0  0  0
    1.0889   -0.0927   -1.3498 C   0  0  0  0  0  0  0  0  0  0  0  0
    0.8521    1.4708    0.4771 C   0  0  0  0  0  0  0  0  0  0  0  0
    2.4309   -0.2777   -1.0175 C   0  0  0  0  0  0  0  0  0  0  0  0
    2.1940    1.2855    0.8095 C   0  0  0  0  0  0  0  0  0  0  0  0
   -4.1113   -2.9661   -0.6571 C   0  0  0  0  0  0  0  0  0  0  0  0
   -2.4172   -2.8064    1.0582 C   0  0  0  0  0  0  0  0  0  0  0  0
    4.3653    0.2367    0.4209 C   0  0  0  0  0  0  0  0  0  0  0  0
   -3.0892   -3.5522    0.0896 C   0  0  0  0  0  0  0  0  0  0  0  0
    4.7932   -0.2263    1.6412 C   0  0  0  0  0  0  0  0  0  0  0  0
    5.5502    0.4678   -0.3032 C   0  0  0  0  0  0  0  0  0  0  0  0
    3.2099   -2.5009   -1.3430 C   0  0  0  0  0  0  0  0  0  0  0  0
   -3.6252    1.3557   -1.1468 H   0  0  0  0  0  0  0  0  0  0  0  0
   -5.2464    0.6780    0.6134 H   0  0  0  0  0  0  0  0  0  0  0  0
   -3.2249    3.3924    1.0894 H   0  0  0  0  0  0  0  0  0  0  0  0
   -4.8035    3.1455    0.3114 H   0  0  0  0  0  0  0  0  0  0  0  0
   -1.6025    1.4412    1.0304 H   0  0  0  0  0  0  0  0  0  0  0  0
   -5.2573   -1.1871   -1.0250 H   0  0  0  0  0  0  0  0  0  0  0  0
   -2.2166   -0.9178    2.0332 H   0  0  0  0  0  0  0  0  0  0  0  0
   -4.3254    1.6891    2.3637 H   0  0  0  0  0  0  0  0  0  0  0  0
    0.6681   -0.6384   -2.1910 H   0  0  0  0  0  0  0  0  0  0  0  0
    0.2837    2.1860    1.0640 H   0  0  0  0  0  0  0  0  0  0  0  0
    2.6078    1.8416    1.6477 H   0  0  0  0  0  0  0  0  0  0  0  0
   -4.6340   -3.5466   -1.4116 H   0  0  0  0  0  0  0  0  0  0  0  0
   -1.6193   -3.2621    1.6372 H   0  0  0  0  0  0  0  0  0  0  0  0
   -3.5938    4.7786   -0.6596 H   0  0  0  0  0  0  0  0  0  0  0  0
   -2.8161   -4.5889   -0.0836 H   0  0  0  0  0  0  0  0  0  0  0  0
    4.2691   -0.5411    2.5331 H   0  0  0  0  0  0  0  0  0  0  0  0
    5.6636    0.8373   -1.3128 H   0  0  0  0  0  0  0  0  0  0  0  0
    6.8083   -0.5294    2.2954 H   0  0  0  0  0  0  0  0  0  0  0  0
    2.2116   -2.9440   -1.4156 H   0  0  0  0  0  0  0  0  0  0  0  0
    3.5835   -2.5883   -0.3181 H   0  0  0  0  0  0  0  0  0  0  0  0
    3.8837   -3.0492   -2.0071 H   0  0  0  0  0  0  0  0  0  0  0  0
  1  9  1  0  0  0  0
  1 35  1  0  0  0  0
  2 10  1  0  0  0  0
  2 41  1  0  0  0  0
  3 12  2  0  0  0  0
  4 19  1  0  0  0  0
  4 27  1  0  0  0  0
  5  8  1  0  0  0  0
  5 12  1  0  0  0  0
  5 32  1  0  0  0  0
  6  7  1  0  0  0  0
  6 25  1  0  0  0  0
  6 45  1  0  0  0  0
  7 26  2  0  0  0  0
  8  9  1  0  0  0  0
  8 10  1  0  0  0  0
  8 28  1  0  0  0  0
  9 11  1  0  0  0  0
  9 29  1  0  0  0  0
 10 30  1  0  0  0  0
 10 31  1  0  0  0  0
 11 14  2  0  0  0  0
 11 15  1  0  0  0  0
 12 13  1  0  0  0  0
 13 17  2  0  0  0  0
 13 18  1  0  0  0  0
 14 21  1  0  0  0  0
 14 33  1  0  0  0  0
 15 22  2  0  0  0  0
 15 34  1  0  0  0  0
 16 19  2  0  0  0  0
 16 20  1  0  0  0  0
 16 23  1  0  0  0  0
 17 19  1  0  0  0  0
 17 36  1  0  0  0  0
 18 20  2  0  0  0  0
 18 37  1  0  0  0  0
 20 38  1  0  0  0  0
 21 24  2  0  0  0  0
 21 39  1  0  0  0  0
 22 24  1  0  0  0  0
 22 40  1  0  0  0  0
 23 25  2  0  0  0  0
 23 26  1  0  0  0  0
 24 42  1  0  0  0  0
 25 43  1  0  0  0  0
 26 44  1  0  0  0  0
 27 46  1  0  0  0  0
 27 47  1  0  0  0  0
 27 48  1  0  0  0  0
M  END
> <PUBCHEM_COMPOUND_CID>
118662903

> <PUBCHEM_CONFORMER_RMSD>
1

> <PUBCHEM_CONFORMER_DIVERSEORDER>
4
30
33
18
6
24
26
36
8
32
21
14
20
31
1
12
17
22
16
28
23
25
29
9
15
13
27
11
3
2
7
34
5
10
35
19

> <PUBCHEM_MMFF94_PARTIAL_CHARGES>
41
1 -0.68
10 0.28
11 -0.14
12 0.54
13 0.09
14 -0.15
15 -0.15
16 0.05
17 -0.15
18 -0.15
19 0.08
2 -0.68
20 -0.15
21 -0.15
22 -0.15
23 -0.05
24 -0.15
25 -0.3
26 0.14
27 0.28
3 -0.57
32 0.37
33 0.15
34 0.15
35 0.4
36 0.15
37 0.15
38 0.15
39 0.15
4 -0.36
40 0.15
41 0.4
42 0.15
43 0.15
44 0.15
45 0.27
5 -0.73
6 0.3
7 -0.71
8 0.3
9 0.42

> <PUBCHEM_EFFECTIVE_ROTOR_COUNT>
8

> <PUBCHEM_PHARMACOPHORE_FEATURES>
12
1 1 acceptor
1 1 donor
1 2 acceptor
1 2 donor
1 3 acceptor
1 4 acceptor
1 5 donor
1 6 donor
1 7 acceptor
5 6 7 23 25 26 rings
6 11 14 15 21 22 24 rings
6 13 16 17 18 19 20 rings

> <PUBCHEM_HEAVY_ATOM_COUNT>
27

> <PUBCHEM_ATOM_DEF_STEREO_COUNT>
2

> <PUBCHEM_ATOM_UDEF_STEREO_COUNT>
0

> <PUBCHEM_BOND_DEF_STEREO_COUNT>
0

> <PUBCHEM_BOND_UDEF_STEREO_COUNT>
0

> <PUBCHEM_ISOTOPIC_ATOM_COUNT>
0

> <PUBCHEM_COMPONENT_COUNT>
1

> <PUBCHEM_CACTVS_TAUTO_COUNT>
9

> <PUBCHEM_CONFORMER_ID>
0712A6F700000004

> <PUBCHEM_MMFF94_ENERGY>
78.243

> <PUBCHEM_FEATURE_SELFOVERLAP>
60.902

> <PUBCHEM_SHAPE_FINGERPRINT>
11370993 144 17845390872375361323
12166972 35 17315068003323013927
12293681 4 18343019956418891232
12422481 6 17751074717779477578
12633257 1 18270695258744061521
13004483 165 18125158484154626759
13583140 156 17917424328538960117
13944108 23 8567478712261356903
13994607 96 13038911057935298351
14081887 123 18413112762090514771
14844126 61 18335421300942829179
14856354 85 18338806705518006006
14955137 171 17846222189593249104
15183329 4 12103574074202601528
15250474 111 18114452427512784066
15348495 7 18272081713132144376
17349148 13 15140684657504818820
17857418 61 17967805081316624562
17913733 40 17275385413459192334
17980427 26 17403440889828886717
20554085 129 18123167032353002721
21033648 29 18195536883155684149
21133410 58 17258488376452071399
23402539 116 16226044470803242020
23559900 14 18195236944124721497
2838139 119 11959737096891583514
397830 11 18199453524368137720
4403749 210 18200860886139564872
469060 322 14189294902822144903
484985 159 18263628689096886567
508706 21 18412270548810590711
5104073 3 17774444880203436106
5364581 5 18269548515403759672
5924683 9 18411697716521971451
602551 16 18335142007492986746
6126387 218 8357723771983436712
7495541 125 18334289907942002760

> <PUBCHEM_SHAPE_MULTIPOLES>
517.23
13.17
3.49
1.6
15.42
0.4
-0.01
2.09
-3.85
-6.51
0.52
0.47
0.18
0.82

> <PUBCHEM_SHAPE_SELFOVERLAP>
1115.078

> <PUBCHEM_SHAPE_VOLUME>
284.8

> <PUBCHEM_COORDINATE_TYPE>
2
5
10

$$$$
90385125
  -OEChem-05102415153D

 50 52  0     1  0  0  0  0  0999 V2000
    1.1535   -0.3894    2.2214 O   0  0  0  0  0  0  0  0  0  0  0  0
    1.5765    0.4624    0.1068 N   0  0  0  0  0  0  0  0  0  0  0  0
    2.9115    3.0098   -0.1620 N   0  0  0  0  0  0  0  0  0  0  0  0
   -6.9831   -0.3236    0.1719 N   0  0  0  0  0  0  0  0  0  0  0  0
   -6.8273   -0.6095   -1.1320 N   0  0  0  0  0  0  0  0  0  0  0  0
    3.0115    0.5731    0.2554 C   0  0  2  0  0  0  0  0  0  0  0  0
    3.5735    1.7620   -0.5409 C   0  0  0  0  0  0  0  0  0  0  0  0
    3.6890   -0.7261   -0.1316 C   0  0  0  0  0  0  0  0  0  0  0  0
    0.7614   -0.0167    1.1188 C   0  0  0  0  0  0  0  0  0  0  0  0
   -0.6875   -0.0935    0.7997 C   0  0  0  0  0  0  0  0  0  0  0  0
    4.8341   -1.1446    0.5462 C   0  0  0  0  0  0  0  0  0  0  0  0
    3.1674   -1.5035   -1.1657 C   0  0  0  0  0  0  0  0  0  0  0  0
    3.0645    4.0104   -1.2175 C   0  0  0  0  0  0  0  0  0  0  0  0
    3.4517    3.5122    1.1007 C   0  0  0  0  0  0  0  0  0  0  0  0
   -2.6007    0.6951   -0.4473 C   0  0  0  0  0  0  0  0  0  0  0  0
   -3.4086   -0.2389    0.2016 C   0  0  0  0  0  0  0  0  0  0  0  0
   -1.2402    0.7678   -0.1482 C   0  0  0  0  0  0  0  0  0  0  0  0
   -1.4954   -1.0275    1.4487 C   0  0  0  0  0  0  0  0  0  0  0  0
   -2.8559   -1.1000    1.1497 C   0  0  0  0  0  0  0  0  0  0  0  0
    5.4577   -2.3405    0.1899 C   0  0  0  0  0  0  0  0  0  0  0  0
    3.7910   -2.6994   -1.5221 C   0  0  0  0  0  0  0  0  0  0  0  0
   -4.8144   -0.3337   -0.0880 C   0  0  0  0  0  0  0  0  0  0  0  0
    4.9361   -3.1178   -0.8445 C   0  0  0  0  0  0  0  0  0  0  0  0
   -3.1575    1.6352   -1.4684 C   0  0  0  0  0  0  0  0  0  0  0  0
   -5.8081   -0.1491    0.8422 C   0  0  0  0  0  0  0  0  0  0  0  0
   -5.5004   -0.6142   -1.2849 C   0  0  0  0  0  0  0  0  0  0  0  0
    3.2081    0.7250    1.3241 H   0  0  0  0  0  0  0  0  0  0  0  0
    4.6644    1.8325   -0.4321 H   0  0  0  0  0  0  0  0  0  0  0  0
    3.3891    1.5612   -1.6063 H   0  0  0  0  0  0  0  0  0  0  0  0
    1.1937    0.6585   -0.8121 H   0  0  0  0  0  0  0  0  0  0  0  0
    5.2517   -0.5470    1.3521 H   0  0  0  0  0  0  0  0  0  0  0  0
    2.2871   -1.1972   -1.7237 H   0  0  0  0  0  0  0  0  0  0  0  0
    2.6023    3.6644   -2.1489 H   0  0  0  0  0  0  0  0  0  0  0  0
    4.1169    4.2424   -1.4178 H   0  0  0  0  0  0  0  0  0  0  0  0
    2.5524    4.9399   -0.9444 H   0  0  0  0  0  0  0  0  0  0  0  0
    3.2634    2.8198    1.9267 H   0  0  0  0  0  0  0  0  0  0  0  0
    2.9573    4.4505    1.3782 H   0  0  0  0  0  0  0  0  0  0  0  0
    4.5299    3.7026    1.0459 H   0  0  0  0  0  0  0  0  0  0  0  0
   -0.6378    1.5240   -0.6438 H   0  0  0  0  0  0  0  0  0  0  0  0
   -1.0824   -1.7107    2.1860 H   0  0  0  0  0  0  0  0  0  0  0  0
   -3.4658   -1.8394    1.6638 H   0  0  0  0  0  0  0  0  0  0  0  0
    6.3497   -2.6660    0.7171 H   0  0  0  0  0  0  0  0  0  0  0  0
    3.3873   -3.3030   -2.3298 H   0  0  0  0  0  0  0  0  0  0  0  0
    5.4222   -4.0483   -1.1226 H   0  0  0  0  0  0  0  0  0  0  0  0
   -4.0614    2.1324   -1.1012 H   0  0  0  0  0  0  0  0  0  0  0  0
   -2.4459    2.4329   -1.7103 H   0  0  0  0  0  0  0  0  0  0  0  0
   -3.3792    1.1044   -2.3995 H   0  0  0  0  0  0  0  0  0  0  0  0
   -5.7930    0.0868    1.8974 H   0  0  0  0  0  0  0  0  0  0  0  0
   -5.0942   -0.8271   -2.2638 H   0  0  0  0  0  0  0  0  0  0  0  0
   -7.9240   -0.2620    0.5405 H   0  0  0  0  0  0  0  0  0  0  0  0
  1  9  2  0  0  0  0
  2  6  1  0  0  0  0
  2  9  1  0  0  0  0
  2 30  1  0  0  0  0
  3  7  1  0  0  0  0
  3 13  1  0  0  0  0
  3 14  1  0  0  0  0
  4  5  1  0  0  0  0
  4 25  1  0  0  0  0
  4 50  1  0  0  0  0
  5 26  2  0  0  0  0
  6  7  1  0  0  0  0
  6  8  1  0  0  0  0
  6 27  1  0  0  0  0
  7 28  1  0  0  0  0
  7 29  1  0  0  0  0
  8 11  2  0  0  0  0
  8 12  1  0  0  0  0
  9 10  1  0  0  0  0
 10 17  2  0  0  0  0
 10 18  1  0  0  0  0
 11 20  1  0  0  0  0
 11 31  1  0  0  0  0
 12 21  2  0  0  0  0
 12 32  1  0  0  0  0
 13 33  1  0  0  0  0
 13 34  1  0  0  0  0
 13 35  1  0  0  0  0
 14 36  1  0  0  0  0
 14 37  1  0  0  0  0
 14 38  1  0  0  0  0
 15 16  2  0  0  0  0
 15 17  1  0  0  0  0
 15 24  1  0  0  0  0
 16 19  1  0  0  0  0
 16 22  1  0  0  0  0
 17 39  1  0  0  0  0
 18 19  2  0  0  0  0
 18 40  1  0  0  0  0
 19 41  1  0  0  0  0
 20 23  2  0  0  0  0
 20 42  1  0  0  0  0
 21 23  1  0  0  0  0
 21 43  1  0  0  0  0
 22 25  2  0  0  0  0
 22 26  1  0  0  0  0
 23 44  1  0  0  0  0
 24 45  1  0  0  0  0
 24 46  1  0  0  0  0
 24 47  1  0  0  0  0
 25 48  1  0  0  0  0
 26 49  1  0  0  0  0
M  END
> <PUBCHEM_COMPOUND_CID>
90385125

> <PUBCHEM_CONFORMER_RMSD>
0.8

> <PUBCHEM_CONFORMER_DIVERSEORDER>
1
39
33
5
21
37
31
29
34
26
28
18
24
40
7
23
42
35
2
17
14
41
10
25
19
30
45
20
8
16
12
27
32
22
15
11
13
43
36
38
4
3
44
9
6

> <PUBCHEM_MMFF94_PARTIAL_CHARGES>
38
1 -0.57
10 0.09
11 -0.15
12 -0.15
13 0.27
14 0.27
15 -0.14
16 0.05
17 -0.15
18 -0.15
19 -0.15
2 -0.73
20 -0.15
21 -0.15
22 -0.05
23 -0.15
24 0.14
25 -0.3
26 0.14
3 -0.81
30 0.37
31 0.15
32 0.15
39 0.15
4 0.3
40 0.15
41 0.15
42 0.15
43 0.15
44 0.15
48 0.15
49 0.15
5 -0.71
50 0.27
6 0.44
7 0.27
8 -0.14
9 0.54

> <PUBCHEM_EFFECTIVE_ROTOR_COUNT>
7

> <PUBCHEM_PHARMACOPHORE_FEATURES>
8
1 1 acceptor
1 2 donor
1 3 cation
1 4 donor
1 5 acceptor
5 4 5 22 25 26 rings
6 10 15 16 17 18 19 rings
6 8 11 12 20 21 23 rings

> <PUBCHEM_HEAVY_ATOM_COUNT>
26

> <PUBCHEM_ATOM_DEF_STEREO_COUNT>
1

> <PUBCHEM_ATOM_UDEF_STEREO_COUNT>
0

> <PUBCHEM_BOND_DEF_STEREO_COUNT>
0

> <PUBCHEM_BOND_UDEF_STEREO_COUNT>
0

> <PUBCHEM_ISOTOPIC_ATOM_COUNT>
0

> <PUBCHEM_COMPONENT_COUNT>
1

> <PUBCHEM_CACTVS_TAUTO_COUNT>
7

> <PUBCHEM_CONFORMER_ID>
05632AE500000001

> <PUBCHEM_MMFF94_ENERGY>
69.9028

> <PUBCHEM_FEATURE_SELFOVERLAP>
40.596

> <PUBCHEM_SHAPE_FINGERPRINT>
10670039 82 16298668265689170038
11828532 37 17676779763608004347
12107698 1 18410291385014901357
12166972 35 18060139800022019890
13533116 47 18412266155195852517
13540713 4 17751094701945626067
13782708 43 18408045104725146203
13955234 65 18271524294874911072
14170010 4 18411133667510824080
14347332 77 18341892931709884845
14863182 85 16415483714651794302
15081414 286 18115031925891235693
15183329 4 17895476920991825891
15250474 111 17631720686280349407
17844677 252 18409731734087129477
17857418 61 17275100618256392871
1813 80 17987532411699855070
19311894 1 17904481805460004988
20645477 70 18412546500917846226
21315763 191 17918272056942469167
21781051 124 16371023905341569779
221357 26 18260266326266352180
22393880 68 17896024478251814005
2303208 19 17749683960498782979
23081809 10 17846502560910466513
23522609 53 17559137526195988945
23559900 14 18113903792284023906
23569914 152 17399481578664032815
239999 70 18260544558690337096
249057 25 17775013367018529593
29717793 49 18412260623573114503
3004659 81 17632584846273553726
34797466 226 18261108621567685109
376196 1 17610060440399547200
4015057 19 18412544344896790769
44802255 64 16816063529508606932
46194498 28 18407759239985351924
5219985 13 17612038479240755556
5281201 14 18409167688426333476
59682541 52 18342171189803687269
6025842 7 18342459287667421508
6695519 79 17480037718362450162
9658208 31 16733273446739557627

> <PUBCHEM_SHAPE_MULTIPOLES>
509.27
15.5
3.53
1.51
18.95
3.24
-0.12
-6.87
3.41
-8.67
1.13
0.16
-0.1
1.12

> <PUBCHEM_SHAPE_SELFOVERLAP>
1092.967

> <PUBCHEM_SHAPE_VOLUME>
283.7

> <PUBCHEM_COORDINATE_TYPE>
2
5
10

$$$$
90385103
  -OEChem-05102415153D

 49 51  0     1  0  0  0  0  0999 V2000
   -1.0482    0.2553    2.1465 O   0  0  0  0  0  0  0  0  0  0  0  0
   -4.4096   -3.4062    0.6887 O   0  0  0  0  0  0  0  0  0  0  0  0
   -1.4542   -0.1818   -0.0942 N   0  0  0  0  0  0  0  0  0  0  0  0
   -2.8954   -2.5472   -0.8580 N   0  0  0  0  0  0  0  0  0  0  0  0
    7.1310    0.0843    0.2808 N   0  0  0  0  0  0  0  0  0  0  0  0
    7.0296    0.6057   -0.9538 N   0  0  0  0  0  0  0  0  0  0  0  0
   -2.8952   -0.2355    0.0037 C   0  0  2  0  0  0  0  0  0  0  0  0
   -3.4763   -1.2375   -1.0007 C   0  0  0  0  0  0  0  0  0  0  0  0
   -3.4978    1.1434   -0.1679 C   0  0  0  0  0  0  0  0  0  0  0  0
    0.8161    0.1106    0.7317 C   0  0  0  0  0  0  0  0  0  0  0  0
   -0.6131    0.0631    0.9974 C   0  0  0  0  0  0  0  0  0  0  0  0
    2.7210   -0.5533   -0.5979 C   0  0  0  0  0  0  0  0  0  0  0  0
    3.5577    0.2024    0.2236 C   0  0  0  0  0  0  0  0  0  0  0  0
   -4.6471    1.4951    0.5401 C   0  0  0  0  0  0  0  0  0  0  0  0
   -2.9035    2.0615   -1.0336 C   0  0  0  0  0  0  0  0  0  0  0  0
    1.3502   -0.5992   -0.3437 C   0  0  0  0  0  0  0  0  0  0  0  0
    1.6528    0.8662    1.5533 C   0  0  0  0  0  0  0  0  0  0  0  0
    3.0235    0.9119    1.2993 C   0  0  0  0  0  0  0  0  0  0  0  0
    4.9746    0.2657   -0.0163 C   0  0  0  0  0  0  0  0  0  0  0  0
   -5.2022    2.7650    0.3821 C   0  0  0  0  0  0  0  0  0  0  0  0
   -3.4585    3.3315   -1.1916 C   0  0  0  0  0  0  0  0  0  0  0  0
    3.2572   -1.3278   -1.7594 C   0  0  0  0  0  0  0  0  0  0  0  0
   -4.6080    3.6831   -0.4839 C   0  0  0  0  0  0  0  0  0  0  0  0
   -3.4143   -3.5246   -0.0212 C   0  0  0  0  0  0  0  0  0  0  0  0
    5.9288   -0.1382    0.8855 C   0  0  0  0  0  0  0  0  0  0  0  0
    5.7100    0.7141   -1.1297 C   0  0  0  0  0  0  0  0  0  0  0  0
   -2.6293   -4.8075   -0.0809 C   0  0  0  0  0  0  0  0  0  0  0  0
   -3.1261   -0.5867    1.0184 H   0  0  0  0  0  0  0  0  0  0  0  0
   -3.2781   -0.9169   -2.0305 H   0  0  0  0  0  0  0  0  0  0  0  0
   -4.5636   -1.3138   -0.8824 H   0  0  0  0  0  0  0  0  0  0  0  0
   -1.0610   -0.2363   -1.0282 H   0  0  0  0  0  0  0  0  0  0  0  0
   -5.1205    0.7880    1.2161 H   0  0  0  0  0  0  0  0  0  0  0  0
   -2.0178    1.8129   -1.6114 H   0  0  0  0  0  0  0  0  0  0  0  0
   -2.0601   -2.7534   -1.3982 H   0  0  0  0  0  0  0  0  0  0  0  0
    0.7236   -1.2191   -0.9792 H   0  0  0  0  0  0  0  0  0  0  0  0
    1.2557    1.4307    2.3930 H   0  0  0  0  0  0  0  0  0  0  0  0
    3.6563    1.5118    1.9494 H   0  0  0  0  0  0  0  0  0  0  0  0
   -6.0974    3.0388    0.9327 H   0  0  0  0  0  0  0  0  0  0  0  0
   -2.9982    4.0453   -1.8685 H   0  0  0  0  0  0  0  0  0  0  0  0
    4.1220   -1.9336   -1.4691 H   0  0  0  0  0  0  0  0  0  0  0  0
    2.5116   -2.0276   -2.1541 H   0  0  0  0  0  0  0  0  0  0  0  0
    3.5345   -0.6540   -2.5759 H   0  0  0  0  0  0  0  0  0  0  0  0
   -5.0408    4.6715   -0.6077 H   0  0  0  0  0  0  0  0  0  0  0  0
    5.8696   -0.5565    1.8809 H   0  0  0  0  0  0  0  0  0  0  0  0
    5.3452    1.1205   -2.0626 H   0  0  0  0  0  0  0  0  0  0  0  0
   -1.5591   -4.6021    0.0136 H   0  0  0  0  0  0  0  0  0  0  0  0
   -2.9330   -5.4637    0.7394 H   0  0  0  0  0  0  0  0  0  0  0  0
   -2.8217   -5.3083   -1.0336 H   0  0  0  0  0  0  0  0  0  0  0  0
    8.0558   -0.0959    0.6511 H   0  0  0  0  0  0  0  0  0  0  0  0
  1 11  2  0  0  0  0
  2 24  2  0  0  0  0
  3  7  1  0  0  0  0
  3 11  1  0  0  0  0
  3 31  1  0  0  0  0
  4  8  1  0  0  0  0
  4 24  1  0  0  0  0
  4 34  1  0  0  0  0
  5  6  1  0  0  0  0
  5 25  1  0  0  0  0
  5 49  1  0  0  0  0
  6 26  2  0  0  0  0
  7  8  1  0  0  0  0
  7  9  1  0  0  0  0
  7 28  1  0  0  0  0
  8 29  1  0  0  0  0
  8 30  1  0  0  0  0
  9 14  2  0  0  0  0
  9 15  1  0  0  0  0
 10 11  1  0  0  0  0
 10 16  2  0  0  0  0
 10 17  1  0  0  0  0
 12 13  2  0  0  0  0
 12 16  1  0  0  0  0
 12 22  1  0  0  0  0
 13 18  1  0  0  0  0
 13 19  1  0  0  0  0
 14 20  1  0  0  0  0
 14 32  1  0  0  0  0
 15 21  2  0  0  0  0
 15 33  1  0  0  0  0
 16 35  1  0  0  0  0
 17 18  2  0  0  0  0
 17 36  1  0  0  0  0
 18 37  1  0  0  0  0
 19 25  2  0  0  0  0
 19 26  1  0  0  0  0
 20 23  2  0  0  0  0
 20 38  1  0  0  0  0
 21 23  1  0  0  0  0
 21 39  1  0  0  0  0
 22 40  1  0  0  0  0
 22 41  1  0  0  0  0
 22 42  1  0  0  0  0
 23 43  1  0  0  0  0
 24 27  1  0  0  0  0
 25 44  1  0  0  0  0
 26 45  1  0  0  0  0
 27 46  1  0  0  0  0
 27 47  1  0  0  0  0
 27 48  1  0  0  0  0
M  END
> <PUBCHEM_COMPOUND_CID>
90385103

> <PUBCHEM_CONFORMER_RMSD>
1

> <PUBCHEM_CONFORMER_DIVERSEORDER>
1
29
45
36
48
34
33
46
14
21
10
18
17
6
25
40
37
13
27
42
43
19
8
22
12
35
16
31
47
44
39
28
26
15
2
7
9
11
30
24
32
38
3
5
41
23
4
20

> <PUBCHEM_MMFF94_PARTIAL_CHARGES>
40
1 -0.57
10 0.09
11 0.54
12 -0.14
13 0.05
14 -0.15
15 -0.15
16 -0.15
17 -0.15
18 -0.15
19 -0.05
2 -0.57
20 -0.15
21 -0.15
22 0.14
23 -0.15
24 0.57
25 -0.3
26 0.14
27 0.06
3 -0.73
31 0.37
32 0.15
33 0.15
34 0.37
35 0.15
36 0.15
37 0.15
38 0.15
39 0.15
4 -0.73
43 0.15
44 0.15
45 0.15
49 0.27
5 0.3
6 -0.71
7 0.44
8 0.3
9 -0.14

> <PUBCHEM_EFFECTIVE_ROTOR_COUNT>
8

> <PUBCHEM_PHARMACOPHORE_FEATURES>
9
1 1 acceptor
1 2 acceptor
1 3 donor
1 4 donor
1 5 donor
1 6 acceptor
5 5 6 19 25 26 rings
6 10 12 13 16 17 18 rings
6 9 14 15 20 21 23 rings

> <PUBCHEM_HEAVY_ATOM_COUNT>
27

> <PUBCHEM_ATOM_DEF_STEREO_COUNT>
1

> <PUBCHEM_ATOM_UDEF_STEREO_COUNT>
0

> <PUBCHEM_BOND_DEF_STEREO_COUNT>
0

> <PUBCHEM_BOND_UDEF_STEREO_COUNT>
0

> <PUBCHEM_ISOTOPIC_ATOM_COUNT>
0

> <PUBCHEM_COMPONENT_COUNT>
1

> <PUBCHEM_CACTVS_TAUTO_COUNT>
14

> <PUBCHEM_CONFORMER_ID>
05632ACF00000001

> <PUBCHEM_MMFF94_ENERGY>
64.3163

> <PUBCHEM_FEATURE_SELFOVERLAP>
45.675

> <PUBCHEM_SHAPE_FINGERPRINT>
10165383 225 18271810065346802225
10319688 140 16536234649868537979
10411042 1 18049442845080865735
105312 117 18340204086039314453
10675989 125 17623013391458818549
107951 10 18270960146921136823
11056379 131 18337388348308527015
11101153 10 18045225092105364692
11135926 11 17489317330624402094
11796584 16 18340485574412909010
12788726 201 18187918538985451187
12895836 83 18338234856545866825
12895837 130 18259995876529193692
13540713 4 17773580797297635912
13673619 4 18058172915427605899
13690498 29 18339643472194771318
14713325 29 18409729586608769219
15183329 4 17703225101130656144
15230672 131 18265614287011956870
15361156 5 18128814329993592623
15463212 79 18261104137300315307
15876981 60 18187931728413110749
16992828 155 17459177491671528637
17844677 252 18339643464032039856
17980427 23 17530694216593385532
20101258 96 18264773345241396545
20505436 4 17822850866936893721
21033648 29 18194130624968558653
21033650 10 18116454586646947012
21709351 56 18059848489570311900
21756936 100 17603588499909139729
21792961 116 17988932150089383830
22393880 68 18272644658616212760
23081809 10 17822007632313822416
23557571 272 18343580754856979581
23559900 14 17489295396057675160
23569914 152 15476501677732099484
23569943 247 14691465927871234508
3418910 222 17899418876853239604
3610482 184 17749969816109780036
3729539 64 17622459246531551399
4058900 60 17982458096802783577
4073 2 18342176674609026662
484985 159 16486975124647220439
508706 21 18342454859097379231
5283173 99 18411980278204379962
531348 171 18334575707465321714
6700243 42 17910712982635333662
7399639 24 17696737132128385321
7808743 9 18334856086961659989

> <PUBCHEM_SHAPE_MULTIPOLES>
523.98
15.45
4.34
1.4
21.98
4.48
-0.14
-6.12
2.11
-11.7
0.78
0.66
-0.23
0.85

> <PUBCHEM_SHAPE_SELFOVERLAP>
1127.681

> <PUBCHEM_SHAPE_VOLUME>
289.4

> <PUBCHEM_COORDINATE_TYPE>
2
5
10

$$$$
118663060
  -OEChem-05102415153D

 40 42  0     1  0  0  0  0  0999 V2000
    6.3590    2.6591    1.1287 F   0  0  0  0  0  0  0  0  0  0  0  0
    1.3011   -0.4983   -2.1735 O   0  0  0  0  0  0  0  0  0  0  0  0
    1.7571   -1.4833   -0.1244 N   0  0  0  0  0  0  0  0  0  0  0  0
   -6.2191    0.2697    1.8397 N   0  0  0  0  0  0  0  0  0  0  0  0
   -6.7602    0.1017    0.6210 N   0  0  0  0  0  0  0  0  0  0  0  0
   -3.8537    2.5396   -1.8973 N   0  0  0  0  0  0  0  0  0  0  0  0
    3.1582   -1.7399   -0.3697 C   0  0  1  0  0  0  0  0  0  0  0  0
    4.0166   -0.5600    0.0321 C   0  0  0  0  0  0  0  0  0  0  0  0
    3.5834   -3.0353    0.3184 C   0  0  0  0  0  0  0  0  0  0  0  0
   -0.4722   -0.6600   -0.6479 C   0  0  0  0  0  0  0  0  0  0  0  0
    0.9083   -0.8713   -1.0539 C   0  0  0  0  0  0  0  0  0  0  0  0
   -3.1205   -0.2566    0.1311 C   0  0  0  0  0  0  0  0  0  0  0  0
    3.6582    0.2214    1.1306 C   0  0  0  0  0  0  0  0  0  0  0  0
    5.1663   -0.2538   -0.6961 C   0  0  0  0  0  0  0  0  0  0  0  0
   -1.2127    0.3817   -1.2067 C   0  0  0  0  0  0  0  0  0  0  0  0
   -2.5368    0.5835   -0.8173 C   0  0  0  0  0  0  0  0  0  0  0  0
   -1.0559   -1.5002    0.3004 C   0  0  0  0  0  0  0  0  0  0  0  0
   -2.3800   -1.2982    0.6901 C   0  0  0  0  0  0  0  0  0  0  0  0
   -4.4841   -0.0801    0.5598 C   0  0  0  0  0  0  0  0  0  0  0  0
    4.4495    1.3087    1.5011 C   0  0  0  0  0  0  0  0  0  0  0  0
    5.9574    0.8337   -0.3258 C   0  0  0  0  0  0  0  0  0  0  0  0
    5.5992    1.6149    0.7728 C   0  0  0  0  0  0  0  0  0  0  0  0
   -4.8589    0.1703    1.8573 C   0  0  0  0  0  0  0  0  0  0  0  0
   -5.6955   -0.1117   -0.1566 C   0  0  0  0  0  0  0  0  0  0  0  0
   -3.2645    1.6644   -1.4141 C   0  0  0  0  0  0  0  0  0  0  0  0
    3.2672   -1.8854   -1.4524 H   0  0  0  0  0  0  0  0  0  0  0  0
    1.4160   -1.6803    0.8110 H   0  0  0  0  0  0  0  0  0  0  0  0
    4.6295   -3.2747    0.0987 H   0  0  0  0  0  0  0  0  0  0  0  0
    2.9644   -3.8749   -0.0167 H   0  0  0  0  0  0  0  0  0  0  0  0
    3.4795   -2.9624    1.4073 H   0  0  0  0  0  0  0  0  0  0  0  0
    2.7776   -0.0006    1.7266 H   0  0  0  0  0  0  0  0  0  0  0  0
    5.4575   -0.8557   -1.5528 H   0  0  0  0  0  0  0  0  0  0  0  0
   -0.7587    1.0419   -1.9434 H   0  0  0  0  0  0  0  0  0  0  0  0
   -0.5260   -2.3419    0.7365 H   0  0  0  0  0  0  0  0  0  0  0  0
   -2.8179   -1.9726    1.4227 H   0  0  0  0  0  0  0  0  0  0  0  0
    4.1728    1.9154    2.3584 H   0  0  0  0  0  0  0  0  0  0  0  0
    6.8528    1.0722   -0.8922 H   0  0  0  0  0  0  0  0  0  0  0  0
   -4.2990    0.2869    2.7750 H   0  0  0  0  0  0  0  0  0  0  0  0
   -5.8527   -0.2839   -1.2122 H   0  0  0  0  0  0  0  0  0  0  0  0
   -6.8392    0.4503    2.6193 H   0  0  0  0  0  0  0  0  0  0  0  0
  1 22  1  0  0  0  0
  2 11  2  0  0  0  0
  3  7  1  0  0  0  0
  3 11  1  0  0  0  0
  3 27  1  0  0  0  0
  4  5  1  0  0  0  0
  4 23  1  0  0  0  0
  4 40  1  0  0  0  0
  5 24  2  0  0  0  0
  6 25  3  0  0  0  0
  7  8  1  0  0  0  0
  7  9  1  0  0  0  0
  7 26  1  0  0  0  0
  8 13  2  0  0  0  0
  8 14  1  0  0  0  0
  9 28  1  0  0  0  0
  9 29  1  0  0  0  0
  9 30  1  0  0  0  0
 10 11  1  0  0  0  0
 10 15  2  0  0  0  0
 10 17  1  0  0  0  0
 12 16  2  0  0  0  0
 12 18  1  0  0  0  0
 12 19  1  0  0  0  0
 13 20  1  0  0  0  0
 13 31  1  0  0  0  0
 14 21  2  0  0  0  0
 14 32  1  0  0  0  0
 15 16  1  0  0  0  0
 15 33  1  0  0  0  0
 16 25  1  0  0  0  0
 17 18  2  0  0  0  0
 17 34  1  0  0  0  0
 18 35  1  0  0  0  0
 19 23  2  0  0  0  0
 19 24  1  0  0  0  0
 20 22  2  0  0  0  0
 20 36  1  0  0  0  0
 21 22  1  0  0  0  0
 21 37  1  0  0  0  0
 23 38  1  0  0  0  0
 24 39  1  0  0  0  0
M  END
> <PUBCHEM_COMPOUND_CID>
118663060

> <PUBCHEM_CONFORMER_RMSD>
0.8

> <PUBCHEM_CONFORMER_DIVERSEORDER>
1
16
10
13
4
17
5
9
6
11
12
15
14
7
2
3
8

> <PUBCHEM_MMFF94_PARTIAL_CHARGES>
35
1 -0.19
10 0.09
11 0.54
12 0.05
13 -0.15
14 -0.15
15 -0.15
16 0.07
17 -0.15
18 -0.15
19 -0.05
2 -0.57
20 -0.15
21 -0.15
22 0.19
23 -0.3
24 0.14
25 0.48
27 0.37
3 -0.73
31 0.15
32 0.15
33 0.15
34 0.15
35 0.15
36 0.15
37 0.15
38 0.15
39 0.15
4 0.3
40 0.27
5 -0.71
6 -0.56
7 0.44
8 -0.14

> <PUBCHEM_EFFECTIVE_ROTOR_COUNT>
5

> <PUBCHEM_PHARMACOPHORE_FEATURES>
8
1 2 acceptor
1 3 donor
1 4 donor
1 5 acceptor
1 6 acceptor
5 4 5 19 23 24 rings
6 10 12 15 16 17 18 rings
6 8 13 14 20 21 22 rings

> <PUBCHEM_HEAVY_ATOM_COUNT>
25

> <PUBCHEM_ATOM_DEF_STEREO_COUNT>
1

> <PUBCHEM_ATOM_UDEF_STEREO_COUNT>
0

> <PUBCHEM_BOND_DEF_STEREO_COUNT>
0

> <PUBCHEM_BOND_UDEF_STEREO_COUNT>
0

> <PUBCHEM_ISOTOPIC_ATOM_COUNT>
0

> <PUBCHEM_COMPONENT_COUNT>
1

> <PUBCHEM_CACTVS_TAUTO_COUNT>
9

> <PUBCHEM_CONFORMER_ID>
0712A79400000001

> <PUBCHEM_MMFF94_ENERGY>
58.2567

> <PUBCHEM_FEATURE_SELFOVERLAP>
40.597

> <PUBCHEM_SHAPE_FINGERPRINT>
10 15 17967812786546196440
10165383 225 18335428985103649134
10319926 262 17604698964193799474
11443803 9 14130159753334838909
11578080 2 18195242223146041033
11595378 159 17240471490722416604
11991303 11 14620788323784392613
12236239 1 16271928207378712583
12403259 415 18336548213807877631
12507560 40 18188207602609957478
12616971 3 16988554659146998782
12730499 353 18409451371659974786
12760667 363 10881672490542790302
12892183 10 17822005359326972742
13533116 47 18338240353798304154
14251740 57 15068611648908140978
14341114 176 18335988601370949694
14528608 73 16917348151412049082
146900 427 18273495658883110826
14840074 17 17632858637591168977
15081414 286 18272931635757941360
15183329 4 11743847953768693478
15188451 53 14129048232108057360
15510800 12 8213870322765839688
15575132 122 17131839733419379873
15961568 22 17560812012994700241
17844677 252 18336830762484116735
17857418 61 14056723456554545843
1813 80 14924233689800435966
19784866 240 13334733531152525803
21033648 29 18261665991535890044
21130935 74 18335147441186422587
21307412 95 10231762214268851425
21315764 119 13326586154460142472
22122407 14 17703804629499026570
23559900 14 17531830007393672727
2838139 119 17704345568256998408
4058900 60 15338576942168071367
439807 62 12757734070641030297
497634 4 17489296534360866197
5104073 3 17896315813971964497
542803 24 17489307468931084103
5718773 13 8141547695265727360
57724786 102 17988928855738639416
59755656 520 17418093209070543831
633830 44 17203329983472624782
6608658 132 15482406282494572787
6697151 62 17688003346381902078

> <PUBCHEM_SHAPE_MULTIPOLES>
481.42
16.96
2.2
1.65
0.97
0.01
-0.01
-7.01
6.64
-2.77
-0.1
1
-0.64
2.32

> <PUBCHEM_SHAPE_SELFOVERLAP>
1053.264

> <PUBCHEM_SHAPE_VOLUME>
261.5

> <PUBCHEM_COORDINATE_TYPE>
2
5
10

$$$$
118663040
  -OEChem-05102415153D

 44 46  0     1  0  0  0  0  0999 V2000
    8.0174    1.5008    0.9869 Cl  0  0  0  0  0  0  0  0  0  0  0  0
    3.2431    1.4913   -1.7062 O   0  0  0  0  0  0  0  0  0  0  0  0
   -4.0660   -2.0680   -0.1773 O   0  0  0  0  0  0  0  0  0  0  0  0
    0.7507   -1.2363    1.1564 O   0  0  0  0  0  0  0  0  0  0  0  0
    1.1068    0.9299    0.4095 N   0  0  0  0  0  0  0  0  0  0  0  0
   -7.1945    1.1715   -0.9072 N   0  0  0  0  0  0  0  0  0  0  0  0
   -7.5704    0.3951    0.1233 N   0  0  0  0  0  0  0  0  0  0  0  0
    3.2158    0.4327   -0.7488 C   0  0  2  0  0  0  0  0  0  0  0  0
    2.5463    0.9170    0.5375 C   0  0  0  0  0  0  0  0  0  0  0  0
    4.6341   -0.0271   -0.5028 C   0  0  0  0  0  0  0  0  0  0  0  0
   -1.1389   -0.0004    0.5240 C   0  0  0  0  0  0  0  0  0  0  0  0
   -3.8835    0.3089    0.1301 C   0  0  0  0  0  0  0  0  0  0  0  0
    0.2915   -0.1614    0.7312 C   0  0  0  0  0  0  0  0  0  0  0  0
   -3.3093   -0.9610    0.0718 C   0  0  0  0  0  0  0  0  0  0  0  0
   -1.9371   -1.1156    0.2687 C   0  0  0  0  0  0  0  0  0  0  0  0
   -1.7132    1.2696    0.5823 C   0  0  0  0  0  0  0  0  0  0  0  0
   -3.0853    1.4242    0.3851 C   0  0  0  0  0  0  0  0  0  0  0  0
   -5.2963    0.4908   -0.0683 C   0  0  0  0  0  0  0  0  0  0  0  0
    5.5626    0.8468    0.0628 C   0  0  0  0  0  0  0  0  0  0  0  0
    5.0145   -1.3261   -0.8405 C   0  0  0  0  0  0  0  0  0  0  0  0
    6.8715    0.4219    0.2908 C   0  0  0  0  0  0  0  0  0  0  0  0
    6.3235   -1.7508   -0.6128 C   0  0  0  0  0  0  0  0  0  0  0  0
   -5.8427    1.2617   -1.0650 C   0  0  0  0  0  0  0  0  0  0  0  0
    7.2519   -0.8770   -0.0469 C   0  0  0  0  0  0  0  0  0  0  0  0
   -6.4066   -0.0179    0.6320 C   0  0  0  0  0  0  0  0  0  0  0  0
   -3.3859   -3.3203   -0.2169 C   0  0  0  0  0  0  0  0  0  0  0  0
    2.6369   -0.3864   -1.1930 H   0  0  0  0  0  0  0  0  0  0  0  0
    2.8448    1.9420    0.7836 H   0  0  0  0  0  0  0  0  0  0  0  0
    2.8020    0.2678    1.3828 H   0  0  0  0  0  0  0  0  0  0  0  0
    0.7012    1.7649    0.0007 H   0  0  0  0  0  0  0  0  0  0  0  0
   -1.4374   -2.0773    0.2278 H   0  0  0  0  0  0  0  0  0  0  0  0
   -1.1349    2.1600    0.8105 H   0  0  0  0  0  0  0  0  0  0  0  0
   -3.5143    2.4219    0.4462 H   0  0  0  0  0  0  0  0  0  0  0  0
    5.2715    1.8622    0.3216 H   0  0  0  0  0  0  0  0  0  0  0  0
    4.3026   -2.0187   -1.2813 H   0  0  0  0  0  0  0  0  0  0  0  0
    2.3256    1.7842   -1.8411 H   0  0  0  0  0  0  0  0  0  0  0  0
    6.6198   -2.7621   -0.8757 H   0  0  0  0  0  0  0  0  0  0  0  0
   -5.4081    1.8543   -1.8582 H   0  0  0  0  0  0  0  0  0  0  0  0
    8.2684   -1.2218    0.1248 H   0  0  0  0  0  0  0  0  0  0  0  0
   -6.4203   -0.6720    1.4926 H   0  0  0  0  0  0  0  0  0  0  0  0
   -7.9160    1.6115   -1.4647 H   0  0  0  0  0  0  0  0  0  0  0  0
   -2.9401   -3.5709    0.7519 H   0  0  0  0  0  0  0  0  0  0  0  0
   -2.6617   -3.3629   -1.0377 H   0  0  0  0  0  0  0  0  0  0  0  0
   -4.1398   -4.0875   -0.4233 H   0  0  0  0  0  0  0  0  0  0  0  0
  1 21  1  0  0  0  0
  2  8  1  0  0  0  0
  2 36  1  0  0  0  0
  3 14  1  0  0  0  0
  3 26  1  0  0  0  0
  4 13  2  0  0  0  0
  5  9  1  0  0  0  0
  5 13  1  0  0  0  0
  5 30  1  0  0  0  0
  6  7  1  0  0  0  0
  6 23  1  0  0  0  0
  6 41  1  0  0  0  0
  7 25  2  0  0  0  0
  8  9  1  0  0  0  0
  8 10  1  0  0  0  0
  8 27  1  0  0  0  0
  9 28  1  0  0  0  0
  9 29  1  0  0  0  0
 10 19  2  0  0  0  0
 10 20  1  0  0  0  0
 11 13  1  0  0  0  0
 11 15  2  0  0  0  0
 11 16  1  0  0  0  0
 12 14  2  0  0  0  0
 12 17  1  0  0  0  0
 12 18  1  0  0  0  0
 14 15  1  0  0  0  0
 15 31  1  0  0  0  0
 16 17  2  0  0  0  0
 16 32  1  0  0  0  0
 17 33  1  0  0  0  0
 18 23  2  0  0  0  0
 18 25  1  0  0  0  0
 19 21  1  0  0  0  0
 19 34  1  0  0  0  0
 20 22  2  0  0  0  0
 20 35  1  0  0  0  0
 21 24  2  0  0  0  0
 22 24  1  0  0  0  0
 22 37  1  0  0  0  0
 23 38  1  0  0  0  0
 24 39  1  0  0  0  0
 25 40  1  0  0  0  0
 26 42  1  0  0  0  0
 26 43  1  0  0  0  0
 26 44  1  0  0  0  0
M  END
> <PUBCHEM_COMPOUND_CID>
118663040

> <PUBCHEM_CONFORMER_RMSD>
0.8

> <PUBCHEM_CONFORMER_DIVERSEORDER>
6
153
244
85
67
73
144
171
121
56
86
97
228
214
176
11
222
75
131
204
178
242
193
139
239
202
212
186
138
145
50
1
90
65
213
168
103
206
68
211
194
198
40
102
116
81
19
155
220
185
188
109
3
70
227
61
95
89
226
166
236
96
20
98
122
179
246
87
160
72
154
200
92
164
71
146
125
128
190
15
221
29
173
187
201
209
10
55
8
53
163
134
76
69
183
18
172
133
57
78
119
100
59
219
101
142
33
217
52
175
63
158
181
137
136
229
150
124
30
157
64
207
115
113
197
180
37
241
127
240
66
114
230
218
196
151
235
27
140
208
152
93
77
225
203
79
88
24
39
48
210
22
156
161
41
170
83
45
62
2
169
159
231
91
35
195
234
80
205
9
174
106
60
46
143
215
49
32
105
51
54
43
245
126
38
123
25
47
216
34
243
120
44
192
108
17
223
184
21
147
94
224
104
199
191
7
36
74
4
23
233
232
238
182
42
189
132
31
135
118
162
165
167
117
111
130
110
149
177
58
14
16
112
26
28
237
84
141
99
107
12
129
5
148
13
82

> <PUBCHEM_MMFF94_PARTIAL_CHARGES>
38
1 -0.18
10 -0.14
11 0.09
12 0.05
13 0.54
14 0.08
15 -0.15
16 -0.15
17 -0.15
18 -0.05
19 -0.15
2 -0.68
20 -0.15
21 0.18
22 -0.15
23 -0.3
24 -0.15
25 0.14
26 0.28
3 -0.36
30 0.37
31 0.15
32 0.15
33 0.15
34 0.15
35 0.15
36 0.4
37 0.15
38 0.15
39 0.15
4 -0.57
40 0.15
41 0.27
5 -0.73
6 0.3
7 -0.71
8 0.42
9 0.3

> <PUBCHEM_EFFECTIVE_ROTOR_COUNT>
7

> <PUBCHEM_PHARMACOPHORE_FEATURES>
10
1 2 acceptor
1 2 donor
1 3 acceptor
1 4 acceptor
1 5 donor
1 6 donor
1 7 acceptor
5 6 7 18 23 25 rings
6 10 19 20 21 22 24 rings
6 11 12 14 15 16 17 rings

> <PUBCHEM_HEAVY_ATOM_COUNT>
26

> <PUBCHEM_ATOM_DEF_STEREO_COUNT>
1

> <PUBCHEM_ATOM_UDEF_STEREO_COUNT>
0

> <PUBCHEM_BOND_DEF_STEREO_COUNT>
0

> <PUBCHEM_BOND_UDEF_STEREO_COUNT>
0

> <PUBCHEM_ISOTOPIC_ATOM_COUNT>
0

> <PUBCHEM_COMPONENT_COUNT>
1

> <PUBCHEM_CACTVS_TAUTO_COUNT>
9

> <PUBCHEM_CONFORMER_ID>
0712A78000000006

> <PUBCHEM_MMFF94_ENERGY>
71.2102

> <PUBCHEM_FEATURE_SELFOVERLAP>
50.748

> <PUBCHEM_SHAPE_FINGERPRINT>
106641 1 10447635903338799861
10670039 82 18337105662594559753
10835480 77 18201154447085986672
11135609 127 18339076125071045548
11315181 36 17346882273561596809
11524674 6 16988843891151320143
11719270 70 17917711280253361310
11796584 16 18413672430953127234
12236239 1 17967817175512000125
12516196 113 13254795728888813978
12616971 3 17530969128380078062
12643181 29 18413386544696753067
13533116 47 17131554938812614198
13540713 4 17984969656559829849
14170010 4 18410013235060367232
14251752 14 18260547809832880373
14251764 18 17203891851052024248
14251764 46 18187364329479906401
15183329 4 18411421674415120210
1577012 14 17895481439887758492
15849732 13 17894915122637694599
19611394 137 17023768826384202409
20157964 124 18201721743867687854
20511986 3 18342167891569711446
21095086 128 13190341274694480129
21150785 3 16773793701624128136
21315759 40 14779267518352545104
21315764 119 18409731737775162591
22224240 67 9007051353448231704
23198884 109 18131071515838730577
23559900 14 18201150057128295945
23576562 1 18115016537729796437
249057 3 18261112989043094637
3004659 81 18334576837104724944
3009799 131 18343300366554441768
335352 9 18413106178322394517
34797466 226 17346885542395926428
3545911 37 18408040702288052987
4073 2 18335424616737001602
4874694 18 18271799134433448454
559249 180 18409730681656676575
57724786 102 15719970145068007348
59682541 35 13038892331962394254
59755656 215 18336828598000142318
59755656 520 16515404092762561955
67856867 119 18265899236590511548

> <PUBCHEM_SHAPE_MULTIPOLES>
504.39
23.66
2.08
1.01
11.05
1.6
0.17
-3.43
1.67
-0.7
0.13
0.32
-0.21
1.21

> <PUBCHEM_SHAPE_SELFOVERLAP>
1083.202

> <PUBCHEM_SHAPE_VOLUME>
279.6

> <PUBCHEM_COORDINATE_TYPE>
2
5
10

$$$$
118662892
  -OEChem-05102415153D

 46 48  0     1  0  0  0  0  0999 V2000
    3.5266   -1.9367    0.5591 O   0  0  0  0  0  0  0  0  0  0  0  0
   -1.1901    1.5801    1.1257 O   0  0  0  0  0  0  0  0  0  0  0  0
   -1.3529   -0.6518    0.5155 N   0  0  0  0  0  0  0  0  0  0  0  0
    6.9100    0.6180   -1.1247 N   0  0  0  0  0  0  0  0  0  0  0  0
    7.2352    0.1781    0.1028 N   0  0  0  0  0  0  0  0  0  0  0  0
   -3.5363   -0.4297   -0.6262 C   0  0  2  0  0  0  0  0  0  0  0  0
   -2.7798   -0.7668    0.6684 C   0  0  0  0  0  0  0  0  0  0  0  0
   -4.9989   -0.1000   -0.3747 C   0  0  0  0  0  0  0  0  0  0  0  0
   -3.3982   -1.5714   -1.6392 C   0  0  0  0  0  0  0  0  0  0  0  0
   -5.6438    0.8546   -1.1610 C   0  0  0  0  0  0  0  0  0  0  0  0
   -5.6957   -0.7521    0.6427 C   0  0  0  0  0  0  0  0  0  0  0  0
   -0.6668    0.5306    0.7607 C   0  0  0  0  0  0  0  0  0  0  0  0
    0.8005    0.4927    0.5311 C   0  0  0  0  0  0  0  0  0  0  0  0
    3.5554    0.4218    0.0963 C   0  0  0  0  0  0  0  0  0  0  0  0
    2.8722   -0.7466    0.4338 C   0  0  0  0  0  0  0  0  0  0  0  0
    1.4948   -0.7111    0.6513 C   0  0  0  0  0  0  0  0  0  0  0  0
    1.4836    1.6612    0.1936 C   0  0  0  0  0  0  0  0  0  0  0  0
   -6.9859    1.1572   -0.9302 C   0  0  0  0  0  0  0  0  0  0  0  0
   -7.0377   -0.4495    0.8735 C   0  0  0  0  0  0  0  0  0  0  0  0
    2.8610    1.6258   -0.0236 C   0  0  0  0  0  0  0  0  0  0  0  0
    4.9749    0.4074   -0.1339 C   0  0  0  0  0  0  0  0  0  0  0  0
   -7.6828    0.5050    0.0870 C   0  0  0  0  0  0  0  0  0  0  0  0
    5.5685    0.7719   -1.3177 C   0  0  0  0  0  0  0  0  0  0  0  0
    6.0490    0.0513    0.7034 C   0  0  0  0  0  0  0  0  0  0  0  0
    3.6373   -2.7399   -0.6136 C   0  0  0  0  0  0  0  0  0  0  0  0
   -3.0691    0.4641   -1.0633 H   0  0  0  0  0  0  0  0  0  0  0  0
   -3.0811   -0.0931    1.4799 H   0  0  0  0  0  0  0  0  0  0  0  0
   -2.9790   -1.7932    0.9969 H   0  0  0  0  0  0  0  0  0  0  0  0
   -2.3467   -1.7700   -1.8709 H   0  0  0  0  0  0  0  0  0  0  0  0
   -3.9032   -1.3235   -2.5797 H   0  0  0  0  0  0  0  0  0  0  0  0
   -3.8436   -2.4985   -1.2611 H   0  0  0  0  0  0  0  0  0  0  0  0
   -0.8685   -1.4645    0.1505 H   0  0  0  0  0  0  0  0  0  0  0  0
   -5.1129    1.3683   -1.9580 H   0  0  0  0  0  0  0  0  0  0  0  0
   -5.2302   -1.5131    1.2613 H   0  0  0  0  0  0  0  0  0  0  0  0
    0.9999   -1.6330    0.9437 H   0  0  0  0  0  0  0  0  0  0  0  0
    0.9599    2.6080    0.0915 H   0  0  0  0  0  0  0  0  0  0  0  0
    3.3741    2.5492   -0.2826 H   0  0  0  0  0  0  0  0  0  0  0  0
   -7.4884    1.8999   -1.5429 H   0  0  0  0  0  0  0  0  0  0  0  0
   -7.5820   -0.9600    1.6627 H   0  0  0  0  0  0  0  0  0  0  0  0
   -8.7281    0.7396    0.2659 H   0  0  0  0  0  0  0  0  0  0  0  0
    5.1729    1.1180   -2.2626 H   0  0  0  0  0  0  0  0  0  0  0  0
    6.0212   -0.2955    1.7270 H   0  0  0  0  0  0  0  0  0  0  0  0
    7.6570    0.7935   -1.7851 H   0  0  0  0  0  0  0  0  0  0  0  0
    4.2244   -3.6283   -0.3652 H   0  0  0  0  0  0  0  0  0  0  0  0
    4.1475   -2.1981   -1.4158 H   0  0  0  0  0  0  0  0  0  0  0  0
    2.6461   -3.0598   -0.9506 H   0  0  0  0  0  0  0  0  0  0  0  0
  1 15  1  0  0  0  0
  1 25  1  0  0  0  0
  2 12  2  0  0  0  0
  3  7  1  0  0  0  0
  3 12  1  0  0  0  0
  3 32  1  0  0  0  0
  4  5  1  0  0  0  0
  4 23  1  0  0  0  0
  4 43  1  0  0  0  0
  5 24  2  0  0  0  0
  6  7  1  0  0  0  0
  6  8  1  0  0  0  0
  6  9  1  0  0  0  0
  6 26  1  0  0  0  0
  7 27  1  0  0  0  0
  7 28  1  0  0  0  0
  8 10  2  0  0  0  0
  8 11  1  0  0  0  0
  9 29  1  0  0  0  0
  9 30  1  0  0  0  0
  9 31  1  0  0  0  0
 10 18  1  0  0  0  0
 10 33  1  0  0  0  0
 11 19  2  0  0  0  0
 11 34  1  0  0  0  0
 12 13  1  0  0  0  0
 13 16  2  0  0  0  0
 13 17  1  0  0  0  0
 14 15  2  0  0  0  0
 14 20  1  0  0  0  0
 14 21  1  0  0  0  0
 15 16  1  0  0  0  0
 16 35  1  0  0  0  0
 17 20  2  0  0  0  0
 17 36  1  0  0  0  0
 18 22  2  0  0  0  0
 18 38  1  0  0  0  0
 19 22  1  0  0  0  0
 19 39  1  0  0  0  0
 20 37  1  0  0  0  0
 21 23  2  0  0  0  0
 21 24  1  0  0  0  0
 22 40  1  0  0  0  0
 23 41  1  0  0  0  0
 24 42  1  0  0  0  0
 25 44  1  0  0  0  0
 25 45  1  0  0  0  0
 25 46  1  0  0  0  0
M  END
> <PUBCHEM_COMPOUND_CID>
118662892

> <PUBCHEM_CONFORMER_RMSD>
0.8

> <PUBCHEM_CONFORMER_DIVERSEORDER>
1
14
74
51
39
65
61
35
56
42
68
92
46
31
79
62
50
59
5
82
43
49
29
76
40
75
55
58
84
17
71
86
70
28
7
20
72
63
80
24
53
45
88
81
8
26
4
66
90
33
15
54
52
34
77
18
38
30
83
89
64
37
27
57
41
21
22
67
73
47
32
44
36
19
11
13
23
91
85
78
60
12
9
87
69
25
48
10
16
3
6
2

> <PUBCHEM_MMFF94_PARTIAL_CHARGES>
36
1 -0.36
10 -0.15
11 -0.15
12 0.54
13 0.09
14 0.05
15 0.08
16 -0.15
17 -0.15
18 -0.15
19 -0.15
2 -0.57
20 -0.15
21 -0.05
22 -0.15
23 -0.3
24 0.14
25 0.28
3 -0.73
32 0.37
33 0.15
34 0.15
35 0.15
36 0.15
37 0.15
38 0.15
39 0.15
4 0.3
40 0.15
41 0.15
42 0.15
43 0.27
5 -0.71
6 0.14
7 0.3
8 -0.14

> <PUBCHEM_EFFECTIVE_ROTOR_COUNT>
7

> <PUBCHEM_PHARMACOPHORE_FEATURES>
9
1 1 acceptor
1 2 acceptor
1 3 donor
1 4 donor
1 5 acceptor
1 9 hydrophobe
5 4 5 21 23 24 rings
6 13 14 15 16 17 20 rings
6 8 10 11 18 19 22 rings

> <PUBCHEM_HEAVY_ATOM_COUNT>
25

> <PUBCHEM_ATOM_DEF_STEREO_COUNT>
1

> <PUBCHEM_ATOM_UDEF_STEREO_COUNT>
0

> <PUBCHEM_BOND_DEF_STEREO_COUNT>
0

> <PUBCHEM_BOND_UDEF_STEREO_COUNT>
0

> <PUBCHEM_ISOTOPIC_ATOM_COUNT>
0

> <PUBCHEM_COMPONENT_COUNT>
1

> <PUBCHEM_CACTVS_TAUTO_COUNT>
27

> <PUBCHEM_CONFORMER_ID>
0712A6EC00000001

> <PUBCHEM_MMFF94_ENERGY>
72.6427

> <PUBCHEM_FEATURE_SELFOVERLAP>
45.671

> <PUBCHEM_SHAPE_FINGERPRINT>
10299344 5 17458344152088032361
10319688 140 17559686040474632998
10673678 19 17605291751121821092
11045977 3 11383822788459503391
11315181 36 11815897877754828659
11719270 70 18408318870356964458
11724838 91 11602540939817755713
11796584 16 17275102872549636895
12166972 35 13045940196927158550
12236239 1 17917992823173574905
12516196 113 16056879139038627985
12788726 201 18131352960391896505
12838862 33 18272355487121359226
12916748 109 13479127977970273442
13533116 47 17917146100436537314
13668630 136 17132114662881339741
14118638 360 18270964544318684289
14123256 10 18411983563986275544
14251752 14 18410008840865672825
14251764 18 18261107483127174947
14617045 38 18343303664910015959
14848160 23 11959728283623427141
14849402 71 15792027721710015821
14933364 13 18040154020276904853
15119646 104 18341049623503262338
15183329 4 18202560670933855741
15439362 3 17900830658631948428
15475509 35 14260794924221732558
15537594 2 18202280312163754871
1577012 14 18059579036570631297
18006028 8 16128658552561489353
18335252 98 17967540077787570027
18608769 82 17676493890964447971
19489759 90 14405188374654357699
21033648 29 14201970111638351724
21315759 40 14418130716844273753
22224240 67 10807934856076592908
23198884 109 17022620879924776201
23559900 14 16486680485315932539
29717793 49 17203614804360779176
3004659 81 17988921193242696201
3009799 131 18341893013288227704
3545911 37 18334295387792251665
4073 2 17240490242439128291
4098825 35 17458621185810089633
4325135 7 18410575076695578268
4340502 62 16443061699496094146
5283156 175 18343584010853562186
54446538 1 11169910576303671351
5758199 1 14201396084431393961
59682541 35 11963398448989372477
59755656 215 18272934907963195870
59755656 520 16877939473388503123

> <PUBCHEM_SHAPE_MULTIPOLES>
487.81
21.91
1.73
1.17
11.45
0.72
-0.27
-2.61
-3.57
-1.14
-0.24
0.47
0.06
0.06

> <PUBCHEM_SHAPE_SELFOVERLAP>
1051.859

> <PUBCHEM_SHAPE_VOLUME>
268.8

> <PUBCHEM_COORDINATE_TYPE>
2
5
10

$$$$
90385121
  -OEChem-05102415153D

 49 51  0     1  0  0  0  0  0999 V2000
   -0.9629    0.6209    2.2112 O   0  0  0  0  0  0  0  0  0  0  0  0
   -2.7085   -2.8773    1.0740 O   0  0  0  0  0  0  0  0  0  0  0  0
   -1.4421   -0.1598    0.0812 N   0  0  0  0  0  0  0  0  0  0  0  0
   -3.9325   -3.6746   -0.7311 N   0  0  0  0  0  0  0  0  0  0  0  0
    7.1511    0.0341    0.1546 N   0  0  0  0  0  0  0  0  0  0  0  0
    7.0160    0.3544   -1.1436 N   0  0  0  0  0  0  0  0  0  0  0  0
   -2.8816   -0.1744    0.2288 C   0  0  2  0  0  0  0  0  0  0  0  0
   -3.5079   -1.3094   -0.5955 C   0  0  0  0  0  0  0  0  0  0  0  0
   -3.4688    1.1734   -0.1378 C   0  0  0  0  0  0  0  0  0  0  0  0
    0.8542    0.2258    0.7828 C   0  0  0  0  0  0  0  0  0  0  0  0
   -0.5966    0.2429    1.1014 C   0  0  0  0  0  0  0  0  0  0  0  0
    2.7093   -0.6689   -0.4804 C   0  0  0  0  0  0  0  0  0  0  0  0
    3.5792    0.1949    0.1854 C   0  0  0  0  0  0  0  0  0  0  0  0
   -2.8861    1.9359   -1.1501 C   0  0  0  0  0  0  0  0  0  0  0  0
   -4.5920    1.6517    0.5371 C   0  0  0  0  0  0  0  0  0  0  0  0
   -3.3266   -2.6854    0.0306 C   0  0  0  0  0  0  0  0  0  0  0  0
    1.3469   -0.6534   -0.1816 C   0  0  0  0  0  0  0  0  0  0  0  0
    1.7240    1.0896    1.4485 C   0  0  0  0  0  0  0  0  0  0  0  0
    3.0865    1.0740    1.1499 C   0  0  0  0  0  0  0  0  0  0  0  0
    4.9884    0.1982   -0.1035 C   0  0  0  0  0  0  0  0  0  0  0  0
   -3.4267    3.1768   -1.4877 C   0  0  0  0  0  0  0  0  0  0  0  0
   -5.1326    2.8926    0.1996 C   0  0  0  0  0  0  0  0  0  0  0  0
    3.2007   -1.6258   -1.5194 C   0  0  0  0  0  0  0  0  0  0  0  0
   -4.5501    3.6549   -0.8130 C   0  0  0  0  0  0  0  0  0  0  0  0
    5.9665   -0.0718    0.8223 C   0  0  0  0  0  0  0  0  0  0  0  0
    5.6926    0.4534   -1.2953 C   0  0  0  0  0  0  0  0  0  0  0  0
   -3.9003   -5.0727   -0.3687 C   0  0  0  0  0  0  0  0  0  0  0  0
   -3.0919   -0.3450    1.2932 H   0  0  0  0  0  0  0  0  0  0  0  0
   -3.0929   -1.3300   -1.6114 H   0  0  0  0  0  0  0  0  0  0  0  0
   -4.5905   -1.1497   -0.6896 H   0  0  0  0  0  0  0  0  0  0  0  0
   -1.0715   -0.3606   -0.8418 H   0  0  0  0  0  0  0  0  0  0  0  0
   -2.0216    1.5848   -1.7061 H   0  0  0  0  0  0  0  0  0  0  0  0
   -5.0564    1.0663    1.3262 H   0  0  0  0  0  0  0  0  0  0  0  0
    0.6942   -1.3570   -0.6908 H   0  0  0  0  0  0  0  0  0  0  0  0
    1.3586    1.7857    2.1989 H   0  0  0  0  0  0  0  0  0  0  0  0
    3.7455    1.7599    1.6774 H   0  0  0  0  0  0  0  0  0  0  0  0
   -2.9757    3.7691   -2.2785 H   0  0  0  0  0  0  0  0  0  0  0  0
   -6.0075    3.2647    0.7245 H   0  0  0  0  0  0  0  0  0  0  0  0
    4.0681   -2.1908   -1.1622 H   0  0  0  0  0  0  0  0  0  0  0  0
    2.4360   -2.3680   -1.7756 H   0  0  0  0  0  0  0  0  0  0  0  0
    3.4589   -1.0941   -2.4405 H   0  0  0  0  0  0  0  0  0  0  0  0
   -4.9717    4.6205   -1.0765 H   0  0  0  0  0  0  0  0  0  0  0  0
   -4.3946   -3.4215   -1.5996 H   0  0  0  0  0  0  0  0  0  0  0  0
    5.9346   -0.3260    1.8729 H   0  0  0  0  0  0  0  0  0  0  0  0
    5.3026    0.7120   -2.2698 H   0  0  0  0  0  0  0  0  0  0  0  0
   -3.0964   -5.5534   -0.9315 H   0  0  0  0  0  0  0  0  0  0  0  0
   -4.8577   -5.5219   -0.6427 H   0  0  0  0  0  0  0  0  0  0  0  0
   -3.7233   -5.1944    0.7028 H   0  0  0  0  0  0  0  0  0  0  0  0
    8.0853   -0.0989    0.5213 H   0  0  0  0  0  0  0  0  0  0  0  0
  1 11  2  0  0  0  0
  2 16  2  0  0  0  0
  3  7  1  0  0  0  0
  3 11  1  0  0  0  0
  3 31  1  0  0  0  0
  4 16  1  0  0  0  0
  4 27  1  0  0  0  0
  4 43  1  0  0  0  0
  5  6  1  0  0  0  0
  5 25  1  0  0  0  0
  5 49  1  0  0  0  0
  6 26  2  0  0  0  0
  7  8  1  0  0  0  0
  7  9  1  0  0  0  0
  7 28  1  0  0  0  0
  8 16  1  0  0  0  0
  8 29  1  0  0  0  0
  8 30  1  0  0  0  0
  9 14  2  0  0  0  0
  9 15  1  0  0  0  0
 10 11  1  0  0  0  0
 10 17  2  0  0  0  0
 10 18  1  0  0  0  0
 12 13  2  0  0  0  0
 12 17  1  0  0  0  0
 12 23  1  0  0  0  0
 13 19  1  0  0  0  0
 13 20  1  0  0  0  0
 14 21  1  0  0  0  0
 14 32  1  0  0  0  0
 15 22  2  0  0  0  0
 15 33  1  0  0  0  0
 17 34  1  0  0  0  0
 18 19  2  0  0  0  0
 18 35  1  0  0  0  0
 19 36  1  0  0  0  0
 20 25  2  0  0  0  0
 20 26  1  0  0  0  0
 21 24  2  0  0  0  0
 21 37  1  0  0  0  0
 22 24  1  0  0  0  0
 22 38  1  0  0  0  0
 23 39  1  0  0  0  0
 23 40  1  0  0  0  0
 23 41  1  0  0  0  0
 24 42  1  0  0  0  0
 25 44  1  0  0  0  0
 26 45  1  0  0  0  0
 27 46  1  0  0  0  0
 27 47  1  0  0  0  0
 27 48  1  0  0  0  0
M  END
> <PUBCHEM_COMPOUND_CID>
90385121

> <PUBCHEM_CONFORMER_RMSD>
1

> <PUBCHEM_CONFORMER_DIVERSEORDER>
1
13
47
25
28
38
24
48
43
32
34
4
33
21
14
37
30
10
45
7
12
27
36
39
31
5
40
20
44
42
8
22
26
35
29
41
18
9
15
6
23
19
11
46
16
3
17
2

> <PUBCHEM_MMFF94_PARTIAL_CHARGES>
40
1 -0.57
10 0.09
11 0.54
12 -0.14
13 0.05
14 -0.15
15 -0.15
16 0.57
17 -0.15
18 -0.15
19 -0.15
2 -0.57
20 -0.05
21 -0.15
22 -0.15
23 0.14
24 -0.15
25 -0.3
26 0.14
27 0.3
3 -0.73
31 0.37
32 0.15
33 0.15
34 0.15
35 0.15
36 0.15
37 0.15
38 0.15
4 -0.73
42 0.15
43 0.37
44 0.15
45 0.15
49 0.27
5 0.3
6 -0.71
7 0.44
8 0.06
9 -0.14

> <PUBCHEM_EFFECTIVE_ROTOR_COUNT>
8

> <PUBCHEM_PHARMACOPHORE_FEATURES>
9
1 1 acceptor
1 2 acceptor
1 3 donor
1 4 donor
1 5 donor
1 6 acceptor
5 5 6 20 25 26 rings
6 10 12 13 17 18 19 rings
6 9 14 15 21 22 24 rings

> <PUBCHEM_HEAVY_ATOM_COUNT>
27

> <PUBCHEM_ATOM_DEF_STEREO_COUNT>
1

> <PUBCHEM_ATOM_UDEF_STEREO_COUNT>
0

> <PUBCHEM_BOND_DEF_STEREO_COUNT>
0

> <PUBCHEM_BOND_UDEF_STEREO_COUNT>
0

> <PUBCHEM_ISOTOPIC_ATOM_COUNT>
0

> <PUBCHEM_COMPONENT_COUNT>
1

> <PUBCHEM_CACTVS_TAUTO_COUNT>
14

> <PUBCHEM_CONFORMER_ID>
05632AE100000001

> <PUBCHEM_MMFF94_ENERGY>
64.4966

> <PUBCHEM_FEATURE_SELFOVERLAP>
45.672

> <PUBCHEM_SHAPE_FINGERPRINT>
10165383 225 18341616954793038649
10319688 140 16535953170691818531
10411042 1 18049161370098925783
105312 117 18339641136054238157
10675989 125 17549828785149173349
107951 10 18342172207969451479
11056379 131 18337388348403524527
11101153 10 18044663241668774500
11135926 11 17774734043641079230
11796584 16 18340484470548246274
11809386 21 18336819887632867354
12342043 65 17844246456574745707
12788726 201 18260817238123002787
12895836 83 18335983052474150561
12895837 130 18113631079046547836
13540713 4 17916571184846453592
13631057 29 18341048635117835370
13673619 4 18058172915417095299
13690498 29 18340487892909174351
15183329 4 17917146079130532088
15230672 131 18265051332689695702
15463212 79 18114175294673883579
15876981 60 18114467858966204157
16087824 20 18408600367667932183
16992828 155 17313936408046971069
17980427 23 17240776090066780766
20101258 96 18190186870180479849
20505436 4 17823133437251597121
20645477 56 18410012096577581297
21709351 56 18272646870508955196
21756936 100 17312827043705928329
22393880 68 18342452651816179850
23081809 10 17748825233580444112
23557571 272 18413388743767338453
23559900 14 17918265455277269816
32027 91 17912375229980745422
3610482 184 17676786317838354652
3729539 64 17692544308119353407
4169191 19 15720251637968444308
44062 13 18413387656892322424
508706 21 18342172284719843031
5283173 99 18409729569307249632
531348 171 18334857182399866762
6376802 90 18341054012727620022
6700243 42 17910712969639629518
7399639 24 17696736024142796017
7808743 9 18260829263287619677

> <PUBCHEM_SHAPE_MULTIPOLES>
523.98
15.57
4.4
1.42
22.66
5
-0.14
-4.01
3.56
-12.75
1.35
0.5
-0.4
0.98

> <PUBCHEM_SHAPE_SELFOVERLAP>
1127.811

> <PUBCHEM_SHAPE_VOLUME>
289.5

> <PUBCHEM_COORDINATE_TYPE>
2
5
10

$$$$
118663008
  -OEChem-05102415153D

 41 43  0     1  0  0  0  0  0999 V2000
    3.7687    2.9097   -0.3786 O   0  0  0  0  0  0  0  0  0  0  0  0
    1.4460   -0.8934    2.0113 O   0  0  0  0  0  0  0  0  0  0  0  0
    1.9718    0.9167    0.6608 N   0  0  0  0  0  0  0  0  0  0  0  0
   -6.1189    0.8446   -1.5943 N   0  0  0  0  0  0  0  0  0  0  0  0
   -6.6431    0.4466   -0.4226 N   0  0  0  0  0  0  0  0  0  0  0  0
   -3.9264   -3.0834    0.5216 N   0  0  0  0  0  0  0  0  0  0  0  0
    3.3889    0.9319    0.9449 C   0  0  1  0  0  0  0  0  0  0  0  0
    4.1363    0.0210   -0.0049 C   0  0  0  0  0  0  0  0  0  0  0  0
    3.9281    2.3648    0.9272 C   0  0  0  0  0  0  0  0  0  0  0  0
   -0.3128    0.0931    0.8148 C   0  0  0  0  0  0  0  0  0  0  0  0
    1.0805   -0.0067    1.2194 C   0  0  0  0  0  0  0  0  0  0  0  0
    3.7040   -0.1176   -1.3239 C   0  0  0  0  0  0  0  0  0  0  0  0
    5.2575   -0.6802    0.4389 C   0  0  0  0  0  0  0  0  0  0  0  0
   -2.9857    0.2862    0.0393 C   0  0  0  0  0  0  0  0  0  0  0  0
   -1.1296   -1.0374    0.8392 C   0  0  0  0  0  0  0  0  0  0  0  0
   -0.8325    1.3202    0.4028 C   0  0  0  0  0  0  0  0  0  0  0  0
   -2.4660   -0.9409    0.4515 C   0  0  0  0  0  0  0  0  0  0  0  0
   -2.1690    1.4167    0.0149 C   0  0  0  0  0  0  0  0  0  0  0  0
   -4.3597    0.4262   -0.3692 C   0  0  0  0  0  0  0  0  0  0  0  0
    4.3930   -0.9574   -2.1991 C   0  0  0  0  0  0  0  0  0  0  0  0
    5.9466   -1.5199   -0.4363 C   0  0  0  0  0  0  0  0  0  0  0  0
    5.5144   -1.6583   -1.7553 C   0  0  0  0  0  0  0  0  0  0  0  0
   -4.7552    0.8500   -1.6145 C   0  0  0  0  0  0  0  0  0  0  0  0
   -5.5637    0.1924    0.3218 C   0  0  0  0  0  0  0  0  0  0  0  0
   -3.2729   -2.1247    0.4903 C   0  0  0  0  0  0  0  0  0  0  0  0
    3.5127    0.5401    1.9628 H   0  0  0  0  0  0  0  0  0  0  0  0
    1.6454    1.5610   -0.0522 H   0  0  0  0  0  0  0  0  0  0  0  0
    3.3769    2.9964    1.6320 H   0  0  0  0  0  0  0  0  0  0  0  0
    4.9924    2.3902    1.1839 H   0  0  0  0  0  0  0  0  0  0  0  0
    2.8431    0.4241   -1.7052 H   0  0  0  0  0  0  0  0  0  0  0  0
    5.6054   -0.5795    1.4635 H   0  0  0  0  0  0  0  0  0  0  0  0
   -0.7259   -1.9974    1.1559 H   0  0  0  0  0  0  0  0  0  0  0  0
   -0.2407    2.2309    0.3992 H   0  0  0  0  0  0  0  0  0  0  0  0
   -2.5555    2.3861   -0.2919 H   0  0  0  0  0  0  0  0  0  0  0  0
    4.0585   -1.0632   -3.2270 H   0  0  0  0  0  0  0  0  0  0  0  0
    6.8200   -2.0653   -0.0911 H   0  0  0  0  0  0  0  0  0  0  0  0
    6.0513   -2.3114   -2.4370 H   0  0  0  0  0  0  0  0  0  0  0  0
    4.1192    3.8163   -0.3532 H   0  0  0  0  0  0  0  0  0  0  0  0
   -4.2076    1.1482   -2.4980 H   0  0  0  0  0  0  0  0  0  0  0  0
   -5.7051   -0.1496    1.3376 H   0  0  0  0  0  0  0  0  0  0  0  0
   -6.7526    1.0989   -2.3417 H   0  0  0  0  0  0  0  0  0  0  0  0
  1  9  1  0  0  0  0
  1 38  1  0  0  0  0
  2 11  2  0  0  0  0
  3  7  1  0  0  0  0
  3 11  1  0  0  0  0
  3 27  1  0  0  0  0
  4  5  1  0  0  0  0
  4 23  1  0  0  0  0
  4 41  1  0  0  0  0
  5 24  2  0  0  0  0
  6 25  3  0  0  0  0
  7  8  1  0  0  0  0
  7  9  1  0  0  0  0
  7 26  1  0  0  0  0
  8 12  2  0  0  0  0
  8 13  1  0  0  0  0
  9 28  1  0  0  0  0
  9 29  1  0  0  0  0
 10 11  1  0  0  0  0
 10 15  2  0  0  0  0
 10 16  1  0  0  0  0
 12 20  1  0  0  0  0
 12 30  1  0  0  0  0
 13 21  2  0  0  0  0
 13 31  1  0  0  0  0
 14 17  2  0  0  0  0
 14 18  1  0  0  0  0
 14 19  1  0  0  0  0
 15 17  1  0  0  0  0
 15 32  1  0  0  0  0
 16 18  2  0  0  0  0
 16 33  1  0  0  0  0
 17 25  1  0  0  0  0
 18 34  1  0  0  0  0
 19 23  2  0  0  0  0
 19 24  1  0  0  0  0
 20 22  2  0  0  0  0
 20 35  1  0  0  0  0
 21 22  1  0  0  0  0
 21 36  1  0  0  0  0
 22 37  1  0  0  0  0
 23 39  1  0  0  0  0
 24 40  1  0  0  0  0
M  END
> <PUBCHEM_COMPOUND_CID>
118663008

> <PUBCHEM_CONFORMER_RMSD>
0.8

> <PUBCHEM_CONFORMER_DIVERSEORDER>
1
6
11
27
17
12
20
21
28
19
23
10
24
26
25
9
7
8
16
13
4
14
29
2
30
18
15
31
22
5
3

> <PUBCHEM_MMFF94_PARTIAL_CHARGES>
38
1 -0.68
10 0.09
11 0.54
12 -0.15
13 -0.15
14 0.05
15 -0.15
16 -0.15
17 0.07
18 -0.15
19 -0.05
2 -0.57
20 -0.15
21 -0.15
22 -0.15
23 -0.3
24 0.14
25 0.48
27 0.37
3 -0.73
30 0.15
31 0.15
32 0.15
33 0.15
34 0.15
35 0.15
36 0.15
37 0.15
38 0.4
39 0.15
4 0.3
40 0.15
41 0.27
5 -0.71
6 -0.56
7 0.44
8 -0.14
9 0.28

> <PUBCHEM_EFFECTIVE_ROTOR_COUNT>
6

> <PUBCHEM_PHARMACOPHORE_FEATURES>
10
1 1 acceptor
1 1 donor
1 2 acceptor
1 3 donor
1 4 donor
1 5 acceptor
1 6 acceptor
5 4 5 19 23 24 rings
6 10 14 15 16 17 18 rings
6 8 12 13 20 21 22 rings

> <PUBCHEM_HEAVY_ATOM_COUNT>
25

> <PUBCHEM_ATOM_DEF_STEREO_COUNT>
1

> <PUBCHEM_ATOM_UDEF_STEREO_COUNT>
0

> <PUBCHEM_BOND_DEF_STEREO_COUNT>
0

> <PUBCHEM_BOND_UDEF_STEREO_COUNT>
0

> <PUBCHEM_ISOTOPIC_ATOM_COUNT>
0

> <PUBCHEM_COMPONENT_COUNT>
1

> <PUBCHEM_CACTVS_TAUTO_COUNT>
9

> <PUBCHEM_CONFORMER_ID>
0712A76000000001

> <PUBCHEM_MMFF94_ENERGY>
60.0171

> <PUBCHEM_FEATURE_SELFOVERLAP>
50.75

> <PUBCHEM_SHAPE_FINGERPRINT>
10670039 82 17459189590620319684
11796584 16 18412543223816017442
12236239 1 16732985314399909371
12390115 104 18264204704757676685
12596602 18 12179846074529302501
12892183 10 9943536201682002120
13533116 47 16845569808090386098
13692114 37 13682408874859440475
13914758 101 15769500833734547971
14347332 77 17275103886584054649
14528608 73 16081094778839060732
14840074 17 14779273011684756479
15183329 4 18410857616291584290
15475509 8 18271813367870801345
15510800 12 17774454789125992582
17844677 252 18262242221723233241
17857418 61 15626219113404513095
20028762 73 15697721394537206078
20645477 70 17989205945611769564
21033648 29 12036315904417846118
21315764 119 18114186272357500278
22061861 79 18130788962192180399
221357 26 18411135805993281952
2215653 11 18343865502466686710
22393880 68 18334009518790138994
2303208 19 18335147522378668795
23559900 14 18411979191440751024
23569943 247 17560242389137159879
29717793 49 18059853952378231248
3004659 81 17418094304497771476
34797466 226 18337952397889607653
376196 1 17758671531764284312
3886686 26 12602955624918390356
4015057 19 17917703643537491889
4058900 60 17168985565848672377
439807 62 16486392409480754333
44062 13 18335143132806463063
46194498 28 18342175562207437028
463206 1 16916776401218416358
474 4 15936411113339906640
542803 24 15068341202774449393
5718773 13 17701542801886952750
59755656 215 18336544919568201646
59755656 520 15430037651839004019
633830 44 17895468249747799562
8988823 20 16056871438789942354
960060 61 17489587887298432080
9658208 31 17603871151706428786

> <PUBCHEM_SHAPE_MULTIPOLES>
482.83
16.14
2.27
1.6
4.46
0.06
-0.5
2.53
-6.84
-1.28
0.19
-0.69
0.32
2.41

> <PUBCHEM_SHAPE_SELFOVERLAP>
1053.464

> <PUBCHEM_SHAPE_VOLUME>
260.4

> <PUBCHEM_COORDINATE_TYPE>
2
5
10

$$$$
118663111
  -OEChem-05102415153D

 48 51  0     1  0  0  0  0  0999 V2000
    6.3260    1.9111   -1.0208 O   0  0  0  0  0  0  0  0  0  0  0  0
    0.1085   -3.4120   -0.1006 O   0  0  0  0  0  0  0  0  0  0  0  0
   -2.8822    1.4814    1.3296 O   0  0  0  0  0  0  0  0  0  0  0  0
    1.1392   -1.3889    0.3663 N   0  0  0  0  0  0  0  0  0  0  0  0
   -6.7442    1.4507   -1.0982 N   0  0  0  0  0  0  0  0  0  0  0  0
   -7.0271    1.3818    0.2138 N   0  0  0  0  0  0  0  0  0  0  0  0
    4.6336    1.1732    0.3606 C   0  0  0  0  0  0  0  0  0  0  0  0
    2.4919   -1.9110    0.4567 C   0  0  1  0  0  0  0  0  0  0  0  0
    3.5163   -0.9090    0.0393 C   0  0  0  0  0  0  0  0  0  0  0  0
    5.0577    2.4492    0.9766 C   0  0  0  0  0  0  0  0  0  0  0  0
    5.4169    0.9187   -0.7555 C   0  0  0  0  0  0  0  0  0  0  0  0
    3.6782    0.2656    0.7788 C   0  0  0  0  0  0  0  0  0  0  0  0
    5.8973    3.0046   -0.1749 C   0  0  0  0  0  0  0  0  0  0  0  0
    4.3149   -1.1611   -1.0889 C   0  0  0  0  0  0  0  0  0  0  0  0
    5.2836   -0.2410   -1.4938 C   0  0  0  0  0  0  0  0  0  0  0  0
    2.7195   -2.4609    1.8721 C   0  0  0  0  0  0  0  0  0  0  0  0
    0.0548   -2.2001    0.0916 C   0  0  0  0  0  0  0  0  0  0  0  0
   -1.2577   -1.5094    0.0064 C   0  0  0  0  0  0  0  0  0  0  0  0
   -3.7215   -0.2109   -0.1570 C   0  0  0  0  0  0  0  0  0  0  0  0
   -1.4696   -0.3243    0.7111 C   0  0  0  0  0  0  0  0  0  0  0  0
   -2.7015    0.3249    0.6294 C   0  0  0  0  0  0  0  0  0  0  0  0
   -2.2777   -2.0453   -0.7799 C   0  0  0  0  0  0  0  0  0  0  0  0
   -3.5096   -1.3961   -0.8614 C   0  0  0  0  0  0  0  0  0  0  0  0
   -4.9985    0.4430   -0.2566 C   0  0  0  0  0  0  0  0  0  0  0  0
   -5.5407    0.9025   -1.4320 C   0  0  0  0  0  0  0  0  0  0  0  0
   -5.9571    0.7653    0.7227 C   0  0  0  0  0  0  0  0  0  0  0  0
   -2.5508    2.6980    0.6645 C   0  0  0  0  0  0  0  0  0  0  0  0
    2.5455   -2.7734   -0.2209 H   0  0  0  0  0  0  0  0  0  0  0  0
    4.2298    3.1142    1.2349 H   0  0  0  0  0  0  0  0  0  0  0  0
    5.6761    2.2572    1.8592 H   0  0  0  0  0  0  0  0  0  0  0  0
    3.0792    0.4726    1.6596 H   0  0  0  0  0  0  0  0  0  0  0  0
    5.3104    3.6951   -0.7942 H   0  0  0  0  0  0  0  0  0  0  0  0
    6.7763    3.5448    0.1918 H   0  0  0  0  0  0  0  0  0  0  0  0
    4.1914   -2.0778   -1.6605 H   0  0  0  0  0  0  0  0  0  0  0  0
    5.9045   -0.4341   -2.3613 H   0  0  0  0  0  0  0  0  0  0  0  0
    1.0208   -0.3869    0.4695 H   0  0  0  0  0  0  0  0  0  0  0  0
    2.5828   -1.6888    2.6377 H   0  0  0  0  0  0  0  0  0  0  0  0
    2.0120   -3.2667    2.0972 H   0  0  0  0  0  0  0  0  0  0  0  0
    3.7328   -2.8639    1.9767 H   0  0  0  0  0  0  0  0  0  0  0  0
   -0.7114    0.1037    1.3608 H   0  0  0  0  0  0  0  0  0  0  0  0
   -2.1307   -2.9654   -1.3394 H   0  0  0  0  0  0  0  0  0  0  0  0
   -4.2919   -1.8332   -1.4777 H   0  0  0  0  0  0  0  0  0  0  0  0
   -5.1916    0.8942   -2.4554 H   0  0  0  0  0  0  0  0  0  0  0  0
   -5.9245    0.5779    1.7869 H   0  0  0  0  0  0  0  0  0  0  0  0
   -7.4200    1.8875   -1.7125 H   0  0  0  0  0  0  0  0  0  0  0  0
   -2.7956    3.5296    1.3310 H   0  0  0  0  0  0  0  0  0  0  0  0
   -3.1257    2.8114   -0.2597 H   0  0  0  0  0  0  0  0  0  0  0  0
   -1.4791    2.7314    0.4442 H   0  0  0  0  0  0  0  0  0  0  0  0
  1 11  1  0  0  0  0
  1 13  1  0  0  0  0
  2 17  2  0  0  0  0
  3 21  1  0  0  0  0
  3 27  1  0  0  0  0
  4  8  1  0  0  0  0
  4 17  1  0  0  0  0
  4 36  1  0  0  0  0
  5  6  1  0  0  0  0
  5 25  1  0  0  0  0
  5 45  1  0  0  0  0
  6 26  2  0  0  0  0
  7 10  1  0  0  0  0
  7 11  2  0  0  0  0
  7 12  1  0  0  0  0
  8  9  1  0  0  0  0
  8 16  1  0  0  0  0
  8 28  1  0  0  0  0
  9 12  2  0  0  0  0
  9 14  1  0  0  0  0
 10 13  1  0  0  0  0
 10 29  1  0  0  0  0
 10 30  1  0  0  0  0
 11 15  1  0  0  0  0
 12 31  1  0  0  0  0
 13 32  1  0  0  0  0
 13 33  1  0  0  0  0
 14 15  2  0  0  0  0
 14 34  1  0  0  0  0
 15 35  1  0  0  0  0
 16 37  1  0  0  0  0
 16 38  1  0  0  0  0
 16 39  1  0  0  0  0
 17 18  1  0  0  0  0
 18 20  2  0  0  0  0
 18 22  1  0  0  0  0
 19 21  2  0  0  0  0
 19 23  1  0  0  0  0
 19 24  1  0  0  0  0
 20 21  1  0  0  0  0
 20 40  1  0  0  0  0
 22 23  2  0  0  0  0
 22 41  1  0  0  0  0
 23 42  1  0  0  0  0
 24 25  2  0  0  0  0
 24 26  1  0  0  0  0
 25 43  1  0  0  0  0
 26 44  1  0  0  0  0
 27 46  1  0  0  0  0
 27 47  1  0  0  0  0
 27 48  1  0  0  0  0
M  END
> <PUBCHEM_COMPOUND_CID>
118663111

> <PUBCHEM_CONFORMER_RMSD>
0.8

> <PUBCHEM_CONFORMER_DIVERSEORDER>
1
41
69
49
36
64
27
50
30
15
58
61
66
37
28
21
72
14
32
44
42
20
48
54
17
13
18
62
65
57
59
11
70
60
43
29
4
71
47
5
52
40
22
53
10
55
31
12
63
19
33
6
46
68
9
35
2
25
51
3
26
38
67
8
56
45
16
24
39
34
23
7

> <PUBCHEM_MMFF94_PARTIAL_CHARGES>
36
1 -0.36
10 0.14
11 0.08
12 -0.15
13 0.28
14 -0.15
15 -0.15
17 0.54
18 0.09
19 0.05
2 -0.57
20 -0.15
21 0.08
22 -0.15
23 -0.15
24 -0.05
25 -0.3
26 0.14
27 0.28
3 -0.36
31 0.15
34 0.15
35 0.15
36 0.37
4 -0.73
40 0.15
41 0.15
42 0.15
43 0.15
44 0.15
45 0.27
5 0.3
6 -0.71
7 -0.14
8 0.44
9 -0.14

> <PUBCHEM_EFFECTIVE_ROTOR_COUNT>
6.6

> <PUBCHEM_PHARMACOPHORE_FEATURES>
10
1 1 acceptor
1 2 acceptor
1 3 acceptor
1 4 donor
1 5 donor
1 6 acceptor
5 1 7 10 11 13 rings
5 5 6 24 25 26 rings
6 18 19 20 21 22 23 rings
6 7 9 11 12 14 15 rings

> <PUBCHEM_HEAVY_ATOM_COUNT>
27

> <PUBCHEM_ATOM_DEF_STEREO_COUNT>
1

> <PUBCHEM_ATOM_UDEF_STEREO_COUNT>
0

> <PUBCHEM_BOND_DEF_STEREO_COUNT>
0

> <PUBCHEM_BOND_UDEF_STEREO_COUNT>
0

> <PUBCHEM_ISOTOPIC_ATOM_COUNT>
0

> <PUBCHEM_COMPONENT_COUNT>
1

> <PUBCHEM_CACTVS_TAUTO_COUNT>
18

> <PUBCHEM_CONFORMER_ID>
0712A7C700000001

> <PUBCHEM_MMFF94_ENERGY>
82.8364

> <PUBCHEM_FEATURE_SELFOVERLAP>
50.851

> <PUBCHEM_SHAPE_FINGERPRINT>
10319926 262 13118544217978995698
10498660 4 18412825815478527954
10670039 82 18270970012054644876
10906281 52 17987523624618825387
12596602 18 17748827431675389355
13617811 41 18411971477791069441
13782708 43 12319440101083010389
13878862 14 17969762134425313894
13911987 19 18270953563020757815
14251740 57 9799694805435159214
14461889 52 17168156649729260267
14528608 73 18413668002398343711
14537116 161 17418370264710652817
14739800 52 18269537486417464202
14790565 3 18200035011178810113
14840074 17 18411703167046661661
14931854 50 18202292411572080008
15064981 194 18197798767119245341
15183329 4 17704076183085477577
15188451 53 8502379909860408295
15198563 99 17480013533502736054
15510800 12 11240001183079277692
15575132 122 18339923706596041493
16994733 274 17458615680680440157
19053607 189 17910946170013257416
20511986 3 18410564119738257700
20642791 239 18201718504760922505
20715895 44 18411979200484281688
21033648 29 18040720307303987558
21049683 271 18341326765565093321
21298829 104 18408323293619495269
21344244 181 12750944564410749573
21682296 61 9583523131354378901
221357 26 17846500305493843824
229767 8 8068101460765283936
23522609 53 17559971935182927561
23559900 14 17916578881296264825
25122255 55 11383828303266226421
270888 7 18336543906287852446
2748736 6 18336816576286525636
2838139 119 18335129865293387087
3472631 163 18341895207699933670
34797466 226 18202286862326166711
3918712 181 18340481292236180272
44317340 157 18413113865944881486
5104073 3 17821720672063300826
53794403 172 18193559093417687652
54039377 194 10087652520068031904
54583773 228 18410568510555733525
56633871 153 8214140755075267873
5718773 13 10663557975970582588
59682541 52 17346607361458380036
6371009 1 18269263587288491434
6697151 62 16885506093378854003
6898599 12 18129095795953484255
7970288 3 10591774181438790860

> <PUBCHEM_SHAPE_MULTIPOLES>
523.1
18.09
3.3
1.3
5.22
0.09
0
-14.79
-4.53
-2.56
0.51
-0.43
0.08
-0.6

> <PUBCHEM_SHAPE_SELFOVERLAP>
1151.801

> <PUBCHEM_SHAPE_VOLUME>
284.4

> <PUBCHEM_COORDINATE_TYPE>
2
5
10

$$$$
118663006
  -OEChem-05102415153D

 50 52  0     1  0  0  0  0  0999 V2000
    3.9060   -2.6121    0.1289 O   0  0  0  0  0  0  0  0  0  0  0  0
   -2.8029    3.1779    0.1732 O   0  0  0  0  0  0  0  0  0  0  0  0
    1.2750    1.1955   -1.9084 O   0  0  0  0  0  0  0  0  0  0  0  0
    1.9534   -0.6752   -0.7180 N   0  0  0  0  0  0  0  0  0  0  0  0
   -6.1335   -0.9703    1.7104 N   0  0  0  0  0  0  0  0  0  0  0  0
   -6.6074   -1.1933    0.4726 N   0  0  0  0  0  0  0  0  0  0  0  0
    3.3620   -0.5664   -1.0230 C   0  0  1  0  0  0  0  0  0  0  0  0
   -2.5982    0.8385   -0.2925 C   0  0  0  0  0  0  0  0  0  0  0  0
   -3.0222   -0.4518    0.0262 C   0  0  0  0  0  0  0  0  0  0  0  0
   -3.5275    2.0077   -0.2180 C   0  0  2  0  0  0  0  0  0  0  0  0
   -0.3859   -0.0069   -0.7709 C   0  0  0  0  0  0  0  0  0  0  0  0
    4.0632    0.3163   -0.0131 C   0  0  0  0  0  0  0  0  0  0  0  0
   -1.2800    1.0608   -0.6910 C   0  0  0  0  0  0  0  0  0  0  0  0
    4.0003   -1.9539   -1.1302 C   0  0  0  0  0  0  0  0  0  0  0  0
    0.9886    0.2243   -1.1863 C   0  0  0  0  0  0  0  0  0  0  0  0
   -2.1279   -1.5194   -0.0534 C   0  0  0  0  0  0  0  0  0  0  0  0
   -0.8099   -1.2971   -0.4522 C   0  0  0  0  0  0  0  0  0  0  0  0
   -4.3757   -0.7078    0.4407 C   0  0  0  0  0  0  0  0  0  0  0  0
   -4.2349    2.2811   -1.5470 C   0  0  0  0  0  0  0  0  0  0  0  0
    3.6491    0.3170    1.3189 C   0  0  0  0  0  0  0  0  0  0  0  0
    5.1234    1.1291   -0.4144 C   0  0  0  0  0  0  0  0  0  0  0  0
   -4.8022   -0.6755    1.7460 C   0  0  0  0  0  0  0  0  0  0  0  0
   -5.5290   -1.0315   -0.2986 C   0  0  0  0  0  0  0  0  0  0  0  0
    4.2953    1.1305    2.2499 C   0  0  0  0  0  0  0  0  0  0  0  0
    5.7695    1.9427    0.5164 C   0  0  0  0  0  0  0  0  0  0  0  0
    5.3556    1.9431    1.8486 C   0  0  0  0  0  0  0  0  0  0  0  0
    4.4961   -3.9031    0.0853 C   0  0  0  0  0  0  0  0  0  0  0  0
    3.4372   -0.0857   -2.0071 H   0  0  0  0  0  0  0  0  0  0  0  0
   -4.2774    1.8677    0.5662 H   0  0  0  0  0  0  0  0  0  0  0  0
    1.6876   -1.3965   -0.0554 H   0  0  0  0  0  0  0  0  0  0  0  0
   -0.9430    2.0612   -0.9513 H   0  0  0  0  0  0  0  0  0  0  0  0
    3.4772   -2.5487   -1.8890 H   0  0  0  0  0  0  0  0  0  0  0  0
    5.0553   -1.8657   -1.4172 H   0  0  0  0  0  0  0  0  0  0  0  0
   -2.4430   -2.5329    0.1847 H   0  0  0  0  0  0  0  0  0  0  0  0
   -0.1557   -2.1605   -0.5305 H   0  0  0  0  0  0  0  0  0  0  0  0
   -3.5124    2.5407   -2.3294 H   0  0  0  0  0  0  0  0  0  0  0  0
   -4.8141    1.4189   -1.8892 H   0  0  0  0  0  0  0  0  0  0  0  0
   -4.9109    3.1376   -1.4497 H   0  0  0  0  0  0  0  0  0  0  0  0
    2.8362   -0.3139    1.6671 H   0  0  0  0  0  0  0  0  0  0  0  0
    5.4567    1.1362   -1.4488 H   0  0  0  0  0  0  0  0  0  0  0  0
   -4.2949   -0.4741    2.6793 H   0  0  0  0  0  0  0  0  0  0  0  0
   -5.6322   -1.1576   -1.3673 H   0  0  0  0  0  0  0  0  0  0  0  0
    3.9753    1.1288    3.2877 H   0  0  0  0  0  0  0  0  0  0  0  0
    6.5954    2.5752    0.2042 H   0  0  0  0  0  0  0  0  0  0  0  0
   -3.4367    3.9139    0.2207 H   0  0  0  0  0  0  0  0  0  0  0  0
    5.8594    2.5758    2.5735 H   0  0  0  0  0  0  0  0  0  0  0  0
   -6.7766   -1.0358    2.4895 H   0  0  0  0  0  0  0  0  0  0  0  0
    4.3938   -4.3616    1.0725 H   0  0  0  0  0  0  0  0  0  0  0  0
    5.5608   -3.8307   -0.1568 H   0  0  0  0  0  0  0  0  0  0  0  0
    3.9844   -4.5347   -0.6473 H   0  0  0  0  0  0  0  0  0  0  0  0
  1 14  1  0  0  0  0
  1 27  1  0  0  0  0
  2 10  1  0  0  0  0
  2 45  1  0  0  0  0
  3 15  2  0  0  0  0
  4  7  1  0  0  0  0
  4 15  1  0  0  0  0
  4 30  1  0  0  0  0
  5  6  1  0  0  0  0
  5 22  1  0  0  0  0
  5 47  1  0  0  0  0
  6 23  2  0  0  0  0
  7 12  1  0  0  0  0
  7 14  1  0  0  0  0
  7 28  1  0  0  0  0
  8  9  2  0  0  0  0
  8 10  1  0  0  0  0
  8 13  1  0  0  0  0
  9 16  1  0  0  0  0
  9 18  1  0  0  0  0
 10 19  1  0  0  0  0
 10 29  1  0  0  0  0
 11 13  2  0  0  0  0
 11 15  1  0  0  0  0
 11 17  1  0  0  0  0
 12 20  2  0  0  0  0
 12 21  1  0  0  0  0
 13 31  1  0  0  0  0
 14 32  1  0  0  0  0
 14 33  1  0  0  0  0
 16 17  2  0  0  0  0
 16 34  1  0  0  0  0
 17 35  1  0  0  0  0
 18 22  2  0  0  0  0
 18 23  1  0  0  0  0
 19 36  1  0  0  0  0
 19 37  1  0  0  0  0
 19 38  1  0  0  0  0
 20 24  1  0  0  0  0
 20 39  1  0  0  0  0
 21 25  2  0  0  0  0
 21 40  1  0  0  0  0
 22 41  1  0  0  0  0
 23 42  1  0  0  0  0
 24 26  2  0  0  0  0
 24 43  1  0  0  0  0
 25 26  1  0  0  0  0
 25 44  1  0  0  0  0
 26 46  1  0  0  0  0
 27 48  1  0  0  0  0
 27 49  1  0  0  0  0
 27 50  1  0  0  0  0
M  END
> <PUBCHEM_COMPOUND_CID>
118663006

> <PUBCHEM_CONFORMER_RMSD>
0.8

> <PUBCHEM_CONFORMER_DIVERSEORDER>
2
49
16
12
54
68
62
23
11
34
17
51
22
65
27
71
43
60
47
67
57
61
69
58
20
31
38
46
72
59
37
14
56
44
8
70
45
18
4
32
36
63
48
35
64
53
28
33
15
30
10
1
7
55
21
66
39
19
13
25
42
40
9
6
41
29
3
50
52
24
5
26

> <PUBCHEM_MMFF94_PARTIAL_CHARGES>
39
1 -0.56
10 0.42
11 0.09
12 -0.14
13 -0.15
14 0.28
15 0.54
16 -0.15
17 -0.15
18 -0.05
2 -0.68
20 -0.15
21 -0.15
22 -0.3
23 0.14
24 -0.15
25 -0.15
26 -0.15
27 0.28
3 -0.57
30 0.37
31 0.15
34 0.15
35 0.15
39 0.15
4 -0.73
40 0.15
41 0.15
42 0.15
43 0.15
44 0.15
45 0.4
46 0.15
47 0.27
5 0.3
6 -0.71
7 0.44
8 -0.14
9 0.05

> <PUBCHEM_EFFECTIVE_ROTOR_COUNT>
8

> <PUBCHEM_PHARMACOPHORE_FEATURES>
10
1 1 acceptor
1 2 acceptor
1 2 donor
1 3 acceptor
1 4 donor
1 5 donor
1 6 acceptor
5 5 6 18 22 23 rings
6 12 20 21 24 25 26 rings
6 8 9 11 13 16 17 rings

> <PUBCHEM_HEAVY_ATOM_COUNT>
27

> <PUBCHEM_ATOM_DEF_STEREO_COUNT>
1

> <PUBCHEM_ATOM_UDEF_STEREO_COUNT>
1

> <PUBCHEM_BOND_DEF_STEREO_COUNT>
0

> <PUBCHEM_BOND_UDEF_STEREO_COUNT>
0

> <PUBCHEM_ISOTOPIC_ATOM_COUNT>
0

> <PUBCHEM_COMPONENT_COUNT>
1

> <PUBCHEM_CACTVS_TAUTO_COUNT>
9

> <PUBCHEM_CONFORMER_ID>
0712A75E00000002

> <PUBCHEM_MMFF94_ENERGY>
72.5888

> <PUBCHEM_FEATURE_SELFOVERLAP>
50.748

> <PUBCHEM_SHAPE_FINGERPRINT>
10 15 18336260262627490232
10165383 225 18270685385363333900
10319926 262 18263632997048680970
11405975 8 18268427928275638966
11475781 23 17459447997686133175
11545043 162 18337393712553673294
11595378 159 18186790379524682328
11796584 16 16805891783502987347
12403259 415 18272375247754367253
12507560 40 18412544288703487174
12596602 18 17749101206008450656
12730499 353 18343304786555700682
12892183 10 18410292488905749668
13073987 5 18410014299389038181
13533116 47 18341899571487329066
13583140 156 18130214982910462044
14565420 104 17987228006140580234
146900 427 17704354394203619442
15183329 4 9511200541733629276
17844677 252 18339930320227953134
17857418 61 15864066602628103545
1813 80 16588027900675770646
21033648 29 18342730810614420905
21065199 12 18410572855907478788
21065201 7 17968377823315374388
21130935 74 18411990144124950667
23559900 14 18336828572694257350
268830 7 17275108314362618059
3004659 81 16660652872736457006
4058900 60 12030697344070169231
5104073 3 18339082575182645600
57724786 102 17203614800260841664
960060 61 13334740136944388010

> <PUBCHEM_SHAPE_MULTIPOLES>
523.1
16.06
3.05
1.65
4.48
1.12
0.52
0.36
6.21
-2.84
-0.04
-0.46
-0.53
2.82

> <PUBCHEM_SHAPE_SELFOVERLAP>
1124.777

> <PUBCHEM_SHAPE_VOLUME>
289.3

> <PUBCHEM_COORDINATE_TYPE>
2
5
10

$$$$
90385131
  -OEChem-05102415153D

 45 47  0     1  0  0  0  0  0999 V2000
    6.7558   -1.3729   -2.4009 F   0  0  0  0  0  0  0  0  0  0  0  0
    1.7026   -1.2455    2.1693 O   0  0  0  0  0  0  0  0  0  0  0  0
   -2.4414    2.3682   -1.0704 O   0  0  0  0  0  0  0  0  0  0  0  0
   -4.0691    2.0247    0.5206 O   0  0  0  0  0  0  0  0  0  0  0  0
    1.8688    0.7467    0.9944 N   0  0  0  0  0  0  0  0  0  0  0  0
   -6.3281   -1.5351   -0.2448 N   0  0  0  0  0  0  0  0  0  0  0  0
   -6.1593   -0.9649   -1.4501 N   0  0  0  0  0  0  0  0  0  0  0  0
    3.2508    1.0180    1.3191 C   0  0  1  0  0  0  0  0  0  0  0  0
    4.1911    0.3773    0.3210 C   0  0  0  0  0  0  0  0  0  0  0  0
   -0.2055   -0.5256    1.0119 C   0  0  0  0  0  0  0  0  0  0  0  0
    3.4736    2.5233    1.4516 C   0  0  0  0  0  0  0  0  0  0  0  0
   -2.8536   -0.8022    0.1786 C   0  0  0  0  0  0  0  0  0  0  0  0
    1.1753   -0.3819    1.4462 C   0  0  0  0  0  0  0  0  0  0  0  0
   -2.2814    0.4665    0.2742 C   0  0  0  0  0  0  0  0  0  0  0  0
   -0.9574    0.6046    0.6910 C   0  0  0  0  0  0  0  0  0  0  0  0
   -0.7777   -1.7942    0.9163 C   0  0  0  0  0  0  0  0  0  0  0  0
   -2.1017   -1.9324    0.4999 C   0  0  0  0  0  0  0  0  0  0  0  0
    3.8223    0.2777   -1.0205 C   0  0  0  0  0  0  0  0  0  0  0  0
    5.4265   -0.1143    0.7432 C   0  0  0  0  0  0  0  0  0  0  0  0
   -4.2168   -0.9758   -0.2484 C   0  0  0  0  0  0  0  0  0  0  0  0
    4.6890   -0.3130   -1.9402 C   0  0  0  0  0  0  0  0  0  0  0  0
    6.2930   -0.7052   -0.1765 C   0  0  0  0  0  0  0  0  0  0  0  0
   -3.0319    1.6744   -0.0519 C   0  0  0  0  0  0  0  0  0  0  0  0
   -5.1950   -1.5665    0.5137 C   0  0  0  0  0  0  0  0  0  0  0  0
    5.9243   -0.8045   -1.5181 C   0  0  0  0  0  0  0  0  0  0  0  0
   -4.8676   -0.6252   -1.4465 C   0  0  0  0  0  0  0  0  0  0  0  0
   -3.0867    3.5777   -1.4829 C   0  0  0  0  0  0  0  0  0  0  0  0
    3.4388    0.5649    2.3012 H   0  0  0  0  0  0  0  0  0  0  0  0
    1.4285    1.3707    0.3259 H   0  0  0  0  0  0  0  0  0  0  0  0
    3.2825    3.0406    0.5042 H   0  0  0  0  0  0  0  0  0  0  0  0
    4.5036    2.7455    1.7509 H   0  0  0  0  0  0  0  0  0  0  0  0
    2.8008    2.9513    2.2029 H   0  0  0  0  0  0  0  0  0  0  0  0
   -0.5468    1.6061    0.7919 H   0  0  0  0  0  0  0  0  0  0  0  0
   -0.2072   -2.6877    1.1564 H   0  0  0  0  0  0  0  0  0  0  0  0
   -2.5255   -2.9315    0.4273 H   0  0  0  0  0  0  0  0  0  0  0  0
    2.8739    0.6644   -1.3825 H   0  0  0  0  0  0  0  0  0  0  0  0
    5.7264   -0.0414    1.7852 H   0  0  0  0  0  0  0  0  0  0  0  0
    4.4039   -0.3880   -2.9854 H   0  0  0  0  0  0  0  0  0  0  0  0
    7.2549   -1.0878    0.1516 H   0  0  0  0  0  0  0  0  0  0  0  0
   -5.1946   -1.9972    1.5056 H   0  0  0  0  0  0  0  0  0  0  0  0
   -4.4583   -0.1375   -2.3201 H   0  0  0  0  0  0  0  0  0  0  0  0
   -7.2475   -1.8830   -0.0031 H   0  0  0  0  0  0  0  0  0  0  0  0
   -2.5028    4.0145   -2.2973 H   0  0  0  0  0  0  0  0  0  0  0  0
   -3.1210    4.2890   -0.6524 H   0  0  0  0  0  0  0  0  0  0  0  0
   -4.0948    3.3610   -1.8485 H   0  0  0  0  0  0  0  0  0  0  0  0
  1 25  1  0  0  0  0
  2 13  2  0  0  0  0
  3 23  1  0  0  0  0
  3 27  1  0  0  0  0
  4 23  2  0  0  0  0
  5  8  1  0  0  0  0
  5 13  1  0  0  0  0
  5 29  1  0  0  0  0
  6  7  1  0  0  0  0
  6 24  1  0  0  0  0
  6 42  1  0  0  0  0
  7 26  2  0  0  0  0
  8  9  1  0  0  0  0
  8 11  1  0  0  0  0
  8 28  1  0  0  0  0
  9 18  2  0  0  0  0
  9 19  1  0  0  0  0
 10 13  1  0  0  0  0
 10 15  2  0  0  0  0
 10 16  1  0  0  0  0
 11 30  1  0  0  0  0
 11 31  1  0  0  0  0
 11 32  1  0  0  0  0
 12 14  2  0  0  0  0
 12 17  1  0  0  0  0
 12 20  1  0  0  0  0
 14 15  1  0  0  0  0
 14 23  1  0  0  0  0
 15 33  1  0  0  0  0
 16 17  2  0  0  0  0
 16 34  1  0  0  0  0
 17 35  1  0  0  0  0
 18 21  1  0  0  0  0
 18 36  1  0  0  0  0
 19 22  2  0  0  0  0
 19 37  1  0  0  0  0
 20 24  2  0  0  0  0
 20 26  1  0  0  0  0
 21 25  2  0  0  0  0
 21 38  1  0  0  0  0
 22 25  1  0  0  0  0
 22 39  1  0  0  0  0
 24 40  1  0  0  0  0
 26 41  1  0  0  0  0
 27 43  1  0  0  0  0
 27 44  1  0  0  0  0
 27 45  1  0  0  0  0
M  END
> <PUBCHEM_COMPOUND_CID>
90385131

> <PUBCHEM_CONFORMER_RMSD>
0.8

> <PUBCHEM_CONFORMER_DIVERSEORDER>
1
54
41
39
32
25
30
50
6
37
56
33
16
48
34
21
24
26
22
19
4
55
36
15
51
7
46
43
18
27
10
52
45
40
5
44
13
49
29
53
2
47
12
14
31
9
42
38
28
8
20
23
3
17
35
11

> <PUBCHEM_MMFF94_PARTIAL_CHARGES>
37
1 -0.19
10 0.09
12 0.05
13 0.54
14 0.09
15 -0.15
16 -0.15
17 -0.15
18 -0.15
19 -0.15
2 -0.57
20 -0.05
21 -0.15
22 -0.15
23 0.63
24 -0.3
25 0.19
26 0.14
27 0.28
29 0.37
3 -0.43
33 0.15
34 0.15
35 0.15
36 0.15
37 0.15
38 0.15
39 0.15
4 -0.57
40 0.15
41 0.15
42 0.27
5 -0.73
6 0.3
7 -0.71
8 0.44
9 -0.14

> <PUBCHEM_EFFECTIVE_ROTOR_COUNT>
7

> <PUBCHEM_PHARMACOPHORE_FEATURES>
8
1 2 acceptor
1 4 acceptor
1 5 donor
1 6 donor
1 7 acceptor
5 6 7 20 24 26 rings
6 10 12 14 15 16 17 rings
6 9 18 19 21 22 25 rings

> <PUBCHEM_HEAVY_ATOM_COUNT>
27

> <PUBCHEM_ATOM_DEF_STEREO_COUNT>
1

> <PUBCHEM_ATOM_UDEF_STEREO_COUNT>
0

> <PUBCHEM_BOND_DEF_STEREO_COUNT>
0

> <PUBCHEM_BOND_UDEF_STEREO_COUNT>
0

> <PUBCHEM_ISOTOPIC_ATOM_COUNT>
0

> <PUBCHEM_COMPONENT_COUNT>
1

> <PUBCHEM_CACTVS_TAUTO_COUNT>
13

> <PUBCHEM_CONFORMER_ID>
05632AEB00000001

> <PUBCHEM_MMFF94_ENERGY>
72.376

> <PUBCHEM_FEATURE_SELFOVERLAP>
40.597

> <PUBCHEM_SHAPE_FINGERPRINT>
10591671 39 17603587456421919195
10670039 82 18040435464909347828
11315621 246 18410009957720791279
12166972 35 17023187179720262031
12390115 104 18339362947181364993
12616971 3 14045737136538736768
12633257 1 12103559814130470441
12788726 201 18041547084382169577
12954195 1 18412266103845947865
13533116 47 16630246995857518530
13540713 5 17752467786210954713
13617811 41 18187363259695608943
13782708 43 18059576918292411118
14294032 229 18115869586648985237
14347332 77 18272082769182389259
14528608 73 16153705461712352106
14910302 57 17988635341467620055
14955137 171 18193283125284675099
15183329 4 18113623365854632206
15575132 122 17095519570029204341
16991971 28 18191587657017548763
17857418 61 15482674610439433991
1813 80 14404911344008729320
19311894 1 18057330483167620992
19958102 18 18413106156246626118
20567600 247 16702297966364974478
20645477 70 17632297895914959216
21033650 10 18188782652056061392
21623969 137 16200437974584296150
21641784 216 17967803938882100757
21781051 124 17968950815261868411
22061861 79 17632858624784784268
22122407 14 14418131794775382180
221357 26 18412258462983259256
22393880 68 18338787936347872608
23366157 5 17534329055690258379
23559900 14 18267862963908872160
23569914 152 17480278095166247015
249057 25 17168414983490744768
25147074 1 17677598774920902617
3004659 81 15984553303340473768
34797466 226 18270395117443830296
4058900 60 16733255751843673307
4098825 35 17775570848893072536
46194498 28 18272367624767977008
474 4 16515681139538183082
508706 21 18336558139662122966
5281201 14 18202001053632781568
5718773 13 17631743656361716030
59755656 215 18412260631878673759
59755656 520 17773891800554360209
6608658 132 17531247214533225213

> <PUBCHEM_SHAPE_MULTIPOLES>
515.82
16.48
2.55
1.85
7.77
2.43
-0.53
-5.24
-8.54
-2.97
-0.3
2.26
-0.07
1.93

> <PUBCHEM_SHAPE_SELFOVERLAP>
1123.001

> <PUBCHEM_SHAPE_VOLUME>
282.6

> <PUBCHEM_COORDINATE_TYPE>
2
5
10

$$$$
90385102
  -OEChem-05102415153D

 52 55  0     1  0  0  0  0  0999 V2000
   -4.2444    1.2623    2.3744 F   0  0  0  0  0  0  0  0  0  0  0  0
   -2.9432    1.0886   -2.1881 F   0  0  0  0  0  0  0  0  0  0  0  0
   -0.6190   -1.3571    1.7954 O   0  0  0  0  0  0  0  0  0  0  0  0
    4.3388   -1.6583    0.7502 O   0  0  0  0  0  0  0  0  0  0  0  0
   -2.8776   -2.5746    0.1061 N   0  0  0  0  0  0  0  0  0  0  0  0
   -1.3720    0.1130    0.1679 N   0  0  0  0  0  0  0  0  0  0  0  0
    6.8984    1.9648   -0.3158 N   0  0  0  0  0  0  0  0  0  0  0  0
    7.0978    0.9830   -1.2117 N   0  0  0  0  0  0  0  0  0  0  0  0
   -3.3366   -3.7189   -0.7060 C   0  0  0  0  0  0  0  0  0  0  0  0
   -2.4924   -4.2350   -1.8389 C   0  0  0  0  0  0  0  0  0  0  0  0
   -2.6579   -5.0567   -0.5934 C   0  0  0  0  0  0  0  0  0  0  0  0
   -3.2938   -1.2978   -0.4694 C   0  0  0  0  0  0  0  0  0  0  0  0
   -2.7838   -0.1179    0.3737 C   0  0  2  0  0  0  0  0  0  0  0  0
   -3.5754    1.1452    0.0997 C   0  0  0  0  0  0  0  0  0  0  0  0
   -4.2711    1.7705    1.1346 C   0  0  0  0  0  0  0  0  0  0  0  0
   -3.6089    1.6820   -1.1873 C   0  0  0  0  0  0  0  0  0  0  0  0
   -0.3678   -0.5297    0.9014 C   0  0  0  0  0  0  0  0  0  0  0  0
    1.0074   -0.1712    0.5923 C   0  0  0  0  0  0  0  0  0  0  0  0
   -5.0003    2.9327    0.8823 C   0  0  0  0  0  0  0  0  0  0  0  0
   -4.3381    2.8441   -1.4396 C   0  0  0  0  0  0  0  0  0  0  0  0
   -5.0335    3.4696   -0.4047 C   0  0  0  0  0  0  0  0  0  0  0  0
    2.0348   -1.0875    0.8174 C   0  0  0  0  0  0  0  0  0  0  0  0
    1.2986    1.0887    0.0692 C   0  0  0  0  0  0  0  0  0  0  0  0
    3.6446    0.5160   -0.0039 C   0  0  0  0  0  0  0  0  0  0  0  0
    3.3534   -0.7440    0.5193 C   0  0  0  0  0  0  0  0  0  0  0  0
    2.6172    1.4323   -0.2287 C   0  0  0  0  0  0  0  0  0  0  0  0
    4.9969    0.8900   -0.3200 C   0  0  0  0  0  0  0  0  0  0  0  0
    5.6560    1.9533    0.2471 C   0  0  0  0  0  0  0  0  0  0  0  0
    5.9327    0.3299   -1.2100 C   0  0  0  0  0  0  0  0  0  0  0  0
    3.9392   -2.9173    1.2865 C   0  0  0  0  0  0  0  0  0  0  0  0
   -4.4140   -3.7544   -0.8447 H   0  0  0  0  0  0  0  0  0  0  0  0
   -1.5255   -3.7796   -2.0155 H   0  0  0  0  0  0  0  0  0  0  0  0
   -3.0015   -4.5677   -2.7352 H   0  0  0  0  0  0  0  0  0  0  0  0
   -3.2770   -5.9435   -0.6530 H   0  0  0  0  0  0  0  0  0  0  0  0
   -1.8025   -5.1504    0.0644 H   0  0  0  0  0  0  0  0  0  0  0  0
   -3.2420   -2.6567    1.0549 H   0  0  0  0  0  0  0  0  0  0  0  0
   -4.3906   -1.2755   -0.5126 H   0  0  0  0  0  0  0  0  0  0  0  0
   -2.9221   -1.2228   -1.4987 H   0  0  0  0  0  0  0  0  0  0  0  0
   -2.9158   -0.3769    1.4325 H   0  0  0  0  0  0  0  0  0  0  0  0
   -1.1121    0.7120   -0.6091 H   0  0  0  0  0  0  0  0  0  0  0  0
   -5.5417    3.4193    1.6881 H   0  0  0  0  0  0  0  0  0  0  0  0
   -4.3638    3.2619   -2.4416 H   0  0  0  0  0  0  0  0  0  0  0  0
   -5.6011    4.3745   -0.6011 H   0  0  0  0  0  0  0  0  0  0  0  0
    1.7499   -2.0540    1.2186 H   0  0  0  0  0  0  0  0  0  0  0  0
    0.5328    1.8416   -0.0939 H   0  0  0  0  0  0  0  0  0  0  0  0
    2.8221    2.4205   -0.6342 H   0  0  0  0  0  0  0  0  0  0  0  0
    5.3668    2.6891    0.9849 H   0  0  0  0  0  0  0  0  0  0  0  0
    5.8181   -0.5266   -1.8596 H   0  0  0  0  0  0  0  0  0  0  0  0
    7.6565    2.6110   -0.1354 H   0  0  0  0  0  0  0  0  0  0  0  0
    4.8479   -3.5169    1.4066 H   0  0  0  0  0  0  0  0  0  0  0  0
    3.2906   -3.4655    0.5946 H   0  0  0  0  0  0  0  0  0  0  0  0
    3.4983   -2.8122    2.2837 H   0  0  0  0  0  0  0  0  0  0  0  0
  1 15  1  0  0  0  0
  2 16  1  0  0  0  0
  3 17  2  0  0  0  0
  4 25  1  0  0  0  0
  4 30  1  0  0  0  0
  5  9  1  0  0  0  0
  5 12  1  0  0  0  0
  5 36  1  0  0  0  0
  6 13  1  0  0  0  0
  6 17  1  0  0  0  0
  6 40  1  0  0  0  0
  7  8  1  0  0  0  0
  7 28  1  0  0  0  0
  7 49  1  0  0  0  0
  8 29  2  0  0  0  0
  9 10  1  0  0  0  0
  9 11  1  0  0  0  0
  9 31  1  0  0  0  0
 10 11  1  0  0  0  0
 10 32  1  0  0  0  0
 10 33  1  0  0  0  0
 11 34  1  0  0  0  0
 11 35  1  0  0  0  0
 12 13  1  0  0  0  0
 12 37  1  0  0  0  0
 12 38  1  0  0  0  0
 13 14  1  0  0  0  0
 13 39  1  0  0  0  0
 14 15  2  0  0  0  0
 14 16  1  0  0  0  0
 15 19  1  0  0  0  0
 16 20  2  0  0  0  0
 17 18  1  0  0  0  0
 18 22  2  0  0  0  0
 18 23  1  0  0  0  0
 19 21  2  0  0  0  0
 19 41  1  0  0  0  0
 20 21  1  0  0  0  0
 20 42  1  0  0  0  0
 21 43  1  0  0  0  0
 22 25  1  0  0  0  0
 22 44  1  0  0  0  0
 23 26  2  0  0  0  0
 23 45  1  0  0  0  0
 24 25  2  0  0  0  0
 24 26  1  0  0  0  0
 24 27  1  0  0  0  0
 26 46  1  0  0  0  0
 27 28  2  0  0  0  0
 27 29  1  0  0  0  0
 28 47  1  0  0  0  0
 29 48  1  0  0  0  0
 30 50  1  0  0  0  0
 30 51  1  0  0  0  0
 30 52  1  0  0  0  0
M  END
> <PUBCHEM_COMPOUND_CID>
90385102

> <PUBCHEM_CONFORMER_RMSD>
1

> <PUBCHEM_CONFORMER_DIVERSEORDER>
4
3
7
9
15
18
8
16
13
14
11
12
1
17
6
5
10
2

> <PUBCHEM_MMFF94_PARTIAL_CHARGES>
46
1 -0.19
10 -0.2
11 -0.2
12 0.27
13 0.44
14 -0.14
15 0.19
16 0.19
17 0.54
18 0.09
19 -0.15
2 -0.19
20 -0.15
21 -0.15
22 -0.15
23 -0.15
24 0.05
25 0.08
26 -0.15
27 -0.05
28 -0.3
29 0.14
3 -0.57
30 0.28
31 0.1
32 0.1
33 0.1
34 0.1
35 0.1
36 0.36
4 -0.36
40 0.37
41 0.15
42 0.15
43 0.15
44 0.15
45 0.15
46 0.15
47 0.15
48 0.15
49 0.27
5 -0.79
6 -0.73
7 0.3
8 -0.71
9 0.06

> <PUBCHEM_EFFECTIVE_ROTOR_COUNT>
9.6

> <PUBCHEM_PHARMACOPHORE_FEATURES>
10
1 3 acceptor
1 4 acceptor
1 5 cation
1 5 donor
1 6 donor
1 7 donor
1 8 acceptor
5 7 8 27 28 29 rings
6 14 15 16 19 20 21 rings
6 18 22 23 24 25 26 rings

> <PUBCHEM_HEAVY_ATOM_COUNT>
30

> <PUBCHEM_ATOM_DEF_STEREO_COUNT>
1

> <PUBCHEM_ATOM_UDEF_STEREO_COUNT>
0

> <PUBCHEM_BOND_DEF_STEREO_COUNT>
0

> <PUBCHEM_BOND_UDEF_STEREO_COUNT>
0

> <PUBCHEM_ISOTOPIC_ATOM_COUNT>
0

> <PUBCHEM_COMPONENT_COUNT>
1

> <PUBCHEM_CACTVS_TAUTO_COUNT>
7

> <PUBCHEM_CONFORMER_ID>
05632ACE00000004

> <PUBCHEM_MMFF94_ENERGY>
79.0548

> <PUBCHEM_FEATURE_SELFOVERLAP>
50.747

> <PUBCHEM_SHAPE_FINGERPRINT>
105312 117 18343025471298635509
11056379 131 18269273624363675023
11101153 10 17901953272376619324
11552529 35 18341325716642994255
12107183 9 18120645847441663106
13540713 5 18187908583035085226
13631057 29 18196931295400306362
13690498 29 18129099111562851815
13911987 19 18269269076726771913
14118638 360 18261108590738386995
14202776 33 18196381539865591460
14790565 3 18122063096260052065
15081414 286 17895481328324720908
15183329 4 18060140886575100620
15250474 111 18337658789673023202
15463212 79 18333723620392732939
19377110 9 11963689802211294564
20101258 96 18121785190870130283
21120745 212 18122630715417359039
21756936 100 17749114404136665017
22393880 68 18342457093028914314
24771293 8 18189336948247058572
32027 91 17915478103565837750
3388396 114 17395872315064725637
3610482 184 17895492409192054196
38695281 34 18123180213359395699
44249763 50 18339632425897848444
484985 159 14836125520036470431
5104073 3 17749390330369070512
531348 171 18410012139479937226
563151 97 18188207719270426090
59755656 520 18059588961918175521
633830 44 17385720253727420410
6898599 12 18410572911515291525

> <PUBCHEM_SHAPE_MULTIPOLES>
571.18
15.55
5.19
1.54
20.9
6.7
0.02
-11.46
2.93
-8.68
1.64
-1.09
0.1
-2.28

> <PUBCHEM_SHAPE_SELFOVERLAP>
1236.103

> <PUBCHEM_SHAPE_VOLUME>
315.3

> <PUBCHEM_COORDINATE_TYPE>
2
5
10

$$$$
118663063
  -OEChem-05102415153D

 50 52  0     1  0  0  0  0  0999 V2000
    3.1450   -1.2816   -1.4293 O   0  0  0  0  0  0  0  0  0  0  0  0
   -1.2225    0.3239    2.2155 O   0  0  0  0  0  0  0  0  0  0  0  0
   -4.5374   -3.3840    0.7693 O   0  0  0  0  0  0  0  0  0  0  0  0
   -1.5674   -0.1753   -0.0225 N   0  0  0  0  0  0  0  0  0  0  0  0
   -2.9838   -2.5641   -0.7594 N   0  0  0  0  0  0  0  0  0  0  0  0
    6.8517    1.0768   -0.2016 N   0  0  0  0  0  0  0  0  0  0  0  0
    7.0647   -0.2380   -0.0217 N   0  0  0  0  0  0  0  0  0  0  0  0
   -3.0104   -0.2296    0.0382 C   0  0  2  0  0  0  0  0  0  0  0  0
   -3.5627   -1.2601   -0.9535 C   0  0  0  0  0  0  0  0  0  0  0  0
   -3.6105    1.1425   -0.1871 C   0  0  0  0  0  0  0  0  0  0  0  0
   -0.7562    0.1015    1.0841 C   0  0  0  0  0  0  0  0  0  0  0  0
    0.6794    0.1449    0.8557 C   0  0  0  0  0  0  0  0  0  0  0  0
   -2.9946    2.0380   -1.0615 C   0  0  0  0  0  0  0  0  0  0  0  0
   -4.7789    1.5108    0.4799 C   0  0  0  0  0  0  0  0  0  0  0  0
    3.4331    0.2316    0.4161 C   0  0  0  0  0  0  0  0  0  0  0  0
    1.2430   -0.5929   -0.1853 C   0  0  0  0  0  0  0  0  0  0  0  0
    2.6198   -0.5496   -0.4052 C   0  0  0  0  0  0  0  0  0  0  0  0
    1.4926    0.9260    1.6770 C   0  0  0  0  0  0  0  0  0  0  0  0
    2.8694    0.9691    1.4573 C   0  0  0  0  0  0  0  0  0  0  0  0
   -3.5473    3.3019   -1.2691 C   0  0  0  0  0  0  0  0  0  0  0  0
   -5.3315    2.7748    0.2723 C   0  0  0  0  0  0  0  0  0  0  0  0
    4.8545    0.2920    0.2059 C   0  0  0  0  0  0  0  0  0  0  0  0
   -4.7159    3.6701   -0.6023 C   0  0  0  0  0  0  0  0  0  0  0  0
   -3.5234   -3.5193    0.0897 C   0  0  0  0  0  0  0  0  0  0  0  0
    5.5446    1.4457   -0.0757 C   0  0  0  0  0  0  0  0  0  0  0  0
    5.8409   -0.7121    0.2268 C   0  0  0  0  0  0  0  0  0  0  0  0
   -2.7349   -4.8016    0.0862 C   0  0  0  0  0  0  0  0  0  0  0  0
    3.2384   -0.6413   -2.6996 C   0  0  0  0  0  0  0  0  0  0  0  0
   -3.2679   -0.5535    1.0556 H   0  0  0  0  0  0  0  0  0  0  0  0
   -3.3374   -0.9673   -1.9861 H   0  0  0  0  0  0  0  0  0  0  0  0
   -4.6527   -1.3356   -0.8623 H   0  0  0  0  0  0  0  0  0  0  0  0
   -1.1487   -0.2559   -0.9435 H   0  0  0  0  0  0  0  0  0  0  0  0
   -2.0933    1.7758   -1.6082 H   0  0  0  0  0  0  0  0  0  0  0  0
   -5.2691    0.8214    1.1621 H   0  0  0  0  0  0  0  0  0  0  0  0
   -2.1339   -2.7831   -1.2714 H   0  0  0  0  0  0  0  0  0  0  0  0
    0.6437   -1.2362   -0.8239 H   0  0  0  0  0  0  0  0  0  0  0  0
    1.0726    1.5112    2.4910 H   0  0  0  0  0  0  0  0  0  0  0  0
    3.4850    1.5822    2.1116 H   0  0  0  0  0  0  0  0  0  0  0  0
   -3.0702    3.9980   -1.9527 H   0  0  0  0  0  0  0  0  0  0  0  0
   -6.2416    3.0614    0.7910 H   0  0  0  0  0  0  0  0  0  0  0  0
   -5.1468    4.6537   -0.7648 H   0  0  0  0  0  0  0  0  0  0  0  0
    5.2370    2.4750   -0.1985 H   0  0  0  0  0  0  0  0  0  0  0  0
    5.7234   -1.7705    0.4128 H   0  0  0  0  0  0  0  0  0  0  0  0
   -3.0601   -5.4362    0.9153 H   0  0  0  0  0  0  0  0  0  0  0  0
   -2.9002   -5.3284   -0.8575 H   0  0  0  0  0  0  0  0  0  0  0  0
   -1.6681   -4.5912    0.2045 H   0  0  0  0  0  0  0  0  0  0  0  0
    7.6471    1.6678   -0.4088 H   0  0  0  0  0  0  0  0  0  0  0  0
    3.7201   -1.3329   -3.3963 H   0  0  0  0  0  0  0  0  0  0  0  0
    3.8426    0.2690   -2.6387 H   0  0  0  0  0  0  0  0  0  0  0  0
    2.2400   -0.4024   -3.0795 H   0  0  0  0  0  0  0  0  0  0  0  0
  1 17  1  0  0  0  0
  1 28  1  0  0  0  0
  2 11  2  0  0  0  0
  3 24  2  0  0  0  0
  4  8  1  0  0  0  0
  4 11  1  0  0  0  0
  4 32  1  0  0  0  0
  5  9  1  0  0  0  0
  5 24  1  0  0  0  0
  5 35  1  0  0  0  0
  6  7  1  0  0  0  0
  6 25  1  0  0  0  0
  6 47  1  0  0  0  0
  7 26  2  0  0  0  0
  8  9  1  0  0  0  0
  8 10  1  0  0  0  0
  8 29  1  0  0  0  0
  9 30  1  0  0  0  0
  9 31  1  0  0  0  0
 10 13  2  0  0  0  0
 10 14  1  0  0  0  0
 11 12  1  0  0  0  0
 12 16  2  0  0  0  0
 12 18  1  0  0  0  0
 13 20  1  0  0  0  0
 13 33  1  0  0  0  0
 14 21  2  0  0  0  0
 14 34  1  0  0  0  0
 15 17  2  0  0  0  0
 15 19  1  0  0  0  0
 15 22  1  0  0  0  0
 16 17  1  0  0  0  0
 16 36  1  0  0  0  0
 18 19  2  0  0  0  0
 18 37  1  0  0  0  0
 19 38  1  0  0  0  0
 20 23  2  0  0  0  0
 20 39  1  0  0  0  0
 21 23  1  0  0  0  0
 21 40  1  0  0  0  0
 22 25  2  0  0  0  0
 22 26  1  0  0  0  0
 23 41  1  0  0  0  0
 24 27  1  0  0  0  0
 25 42  1  0  0  0  0
 26 43  1  0  0  0  0
 27 44  1  0  0  0  0
 27 45  1  0  0  0  0
 27 46  1  0  0  0  0
 28 48  1  0  0  0  0
 28 49  1  0  0  0  0
 28 50  1  0  0  0  0
M  END
> <PUBCHEM_COMPOUND_CID>
118663063

> <PUBCHEM_CONFORMER_RMSD>
1

> <PUBCHEM_CONFORMER_DIVERSEORDER>
1
22
39
25
14
33
48
41
34
45
43
13
51
24
19
30
38
16
44
49
15
28
47
27
52
5
32
31
7
37
9
12
46
36
26
40
11
21
29
35
17
42
3
50
8
10
18
4
2
20
6
23

> <PUBCHEM_MMFF94_PARTIAL_CHARGES>
41
1 -0.36
10 -0.14
11 0.54
12 0.09
13 -0.15
14 -0.15
15 0.05
16 -0.15
17 0.08
18 -0.15
19 -0.15
2 -0.57
20 -0.15
21 -0.15
22 -0.05
23 -0.15
24 0.57
25 -0.3
26 0.14
27 0.06
28 0.28
3 -0.57
32 0.37
33 0.15
34 0.15
35 0.37
36 0.15
37 0.15
38 0.15
39 0.15
4 -0.73
40 0.15
41 0.15
42 0.15
43 0.15
47 0.27
5 -0.73
6 0.3
7 -0.71
8 0.44
9 0.3

> <PUBCHEM_EFFECTIVE_ROTOR_COUNT>
9

> <PUBCHEM_PHARMACOPHORE_FEATURES>
10
1 1 acceptor
1 2 acceptor
1 3 acceptor
1 4 donor
1 5 donor
1 6 donor
1 7 acceptor
5 6 7 22 25 26 rings
6 10 13 14 20 21 23 rings
6 12 15 16 17 18 19 rings

> <PUBCHEM_HEAVY_ATOM_COUNT>
28

> <PUBCHEM_ATOM_DEF_STEREO_COUNT>
1

> <PUBCHEM_ATOM_UDEF_STEREO_COUNT>
0

> <PUBCHEM_BOND_DEF_STEREO_COUNT>
0

> <PUBCHEM_BOND_UDEF_STEREO_COUNT>
0

> <PUBCHEM_ISOTOPIC_ATOM_COUNT>
0

> <PUBCHEM_COMPONENT_COUNT>
1

> <PUBCHEM_CACTVS_TAUTO_COUNT>
27

> <PUBCHEM_CONFORMER_ID>
0712A79700000001

> <PUBCHEM_MMFF94_ENERGY>
76.3965

> <PUBCHEM_FEATURE_SELFOVERLAP>
50.75

> <PUBCHEM_SHAPE_FINGERPRINT>
10165383 225 18271246015918682905
10319688 140 16463333730433198531
105312 117 18338234852313852645
10675989 125 17623012291989375741
107951 10 18342452592024592343
11056379 131 18336539525432058923
11101153 10 18045222901577156556
11135926 11 17418101975383442670
11796584 16 18340204099372894890
12788726 201 17970645188660700503
12895837 130 18259993681753452060
13690498 29 18340202024196698571
14713325 29 18408884062225031851
15131766 46 14276313585501441751
15183329 4 17846213298283069720
15230672 131 18265049137977270842
15361156 5 18128813226281897551
15463212 79 18260258621506480027
15876981 60 18188211004419345789
17980427 23 17458352957192983156
20101258 96 18263926721340802113
20505436 4 17822568292538252113
21033648 29 18269261379807910729
21033650 10 18188511093963229404
21756936 100 17531248327193407649
21792961 116 17988929959613819190
22393880 68 18341886399054033042
23557571 272 18343862234191973989
23569943 247 14691749606155676932
3004659 81 12606819424843296809
32027 91 17912378537079163590
3418910 222 17825955007406436980
3610482 184 17749405762318069580
3729539 64 17694798319888597551
4058900 60 18054229822149425857
4073 2 18412262848529996506
4169191 19 15720250542746541572
484985 159 16558749057622799055
508706 21 18341889710289455343
5283173 99 18411135857542828618
531348 171 18334573508362912530
6376802 90 18341336595758400806
6700243 42 17910430412357553454
7399639 24 17696456761005774993
7808743 9 18334852797095903889

> <PUBCHEM_SHAPE_MULTIPOLES>
538.69
15.31
4.32
1.54
18.41
4.2
0.32
-5.85
1.65
-11.09
0.58
0.71
-0.15
1.45

> <PUBCHEM_SHAPE_SELFOVERLAP>
1156.975

> <PUBCHEM_SHAPE_VOLUME>
297.4

> <PUBCHEM_COORDINATE_TYPE>
2
5
10

$$$$
118663056
  -OEChem-05102415153D

 43 45  0     1  0  0  0  0  0999 V2000
    4.4052    0.5077   -2.0214 F   0  0  0  0  0  0  0  0  0  0  0  0
    2.9752   -0.3781    2.4182 F   0  0  0  0  0  0  0  0  0  0  0  0
    3.0395   -3.5842   -0.4506 O   0  0  0  0  0  0  0  0  0  0  0  0
    1.0783    0.0349   -2.1388 O   0  0  0  0  0  0  0  0  0  0  0  0
    1.4941   -1.0111   -0.1116 N   0  0  0  0  0  0  0  0  0  0  0  0
   -6.6523    0.2584    1.5199 N   0  0  0  0  0  0  0  0  0  0  0  0
   -7.1214    0.1143    0.2688 N   0  0  0  0  0  0  0  0  0  0  0  0
    2.9169   -1.1821   -0.2998 C   0  0  1  0  0  0  0  0  0  0  0  0
    3.6727    0.0356    0.1867 C   0  0  0  0  0  0  0  0  0  0  0  0
    3.3985   -2.4741    0.3658 C   0  0  0  0  0  0  0  0  0  0  0  0
   -0.7511   -0.2860   -0.7075 C   0  0  0  0  0  0  0  0  0  0  0  0
   -3.4501   -0.0571   -0.0395 C   0  0  0  0  0  0  0  0  0  0  0  0
   -2.8711    0.8523   -0.9248 C   0  0  0  0  0  0  0  0  0  0  0  0
    0.6560   -0.4059   -1.0552 C   0  0  0  0  0  0  0  0  0  0  0  0
   -1.5217    0.7379   -1.2587 C   0  0  0  0  0  0  0  0  0  0  0  0
    4.3850    0.8219   -0.7187 C   0  0  0  0  0  0  0  0  0  0  0  0
    3.6573    0.3710    1.5407 C   0  0  0  0  0  0  0  0  0  0  0  0
   -1.3301   -1.1954    0.1778 C   0  0  0  0  0  0  0  0  0  0  0  0
   -2.6794   -1.0807    0.5119 C   0  0  0  0  0  0  0  0  0  0  0  0
   -4.8390    0.0394    0.3219 C   0  0  0  0  0  0  0  0  0  0  0  0
   -3.6650    1.9631   -1.5350 C   0  0  0  0  0  0  0  0  0  0  0  0
    5.0822    1.9439   -0.2703 C   0  0  0  0  0  0  0  0  0  0  0  0
    4.3544    1.4930    1.9890 C   0  0  0  0  0  0  0  0  0  0  0  0
    5.0667    2.2796    1.0835 C   0  0  0  0  0  0  0  0  0  0  0  0
   -5.2916    0.2207    1.6061 C   0  0  0  0  0  0  0  0  0  0  0  0
   -6.0092   -0.0190   -0.4586 C   0  0  0  0  0  0  0  0  0  0  0  0
    3.0759   -1.2909   -1.3804 H   0  0  0  0  0  0  0  0  0  0  0  0
    1.1254   -1.2480    0.8039 H   0  0  0  0  0  0  0  0  0  0  0  0
    4.4903   -2.4826    0.4590 H   0  0  0  0  0  0  0  0  0  0  0  0
    2.9624   -2.6205    1.3597 H   0  0  0  0  0  0  0  0  0  0  0  0
   -1.0721    1.4501   -1.9468 H   0  0  0  0  0  0  0  0  0  0  0  0
   -0.7741   -2.0250    0.6050 H   0  0  0  0  0  0  0  0  0  0  0  0
   -3.1130   -1.8071    1.1957 H   0  0  0  0  0  0  0  0  0  0  0  0
   -4.3463    1.5750   -2.2984 H   0  0  0  0  0  0  0  0  0  0  0  0
   -3.0151    2.6989   -2.0224 H   0  0  0  0  0  0  0  0  0  0  0  0
   -4.2327    2.5111   -0.7756 H   0  0  0  0  0  0  0  0  0  0  0  0
    5.6366    2.5560   -0.9755 H   0  0  0  0  0  0  0  0  0  0  0  0
    4.3422    1.7542    3.0431 H   0  0  0  0  0  0  0  0  0  0  0  0
    5.6092    3.1533    1.4326 H   0  0  0  0  0  0  0  0  0  0  0  0
   -4.7857    0.3263    2.5559 H   0  0  0  0  0  0  0  0  0  0  0  0
   -6.1041   -0.1574   -1.5265 H   0  0  0  0  0  0  0  0  0  0  0  0
    3.3669   -4.3837   -0.0045 H   0  0  0  0  0  0  0  0  0  0  0  0
   -7.3195    0.3793    2.2716 H   0  0  0  0  0  0  0  0  0  0  0  0
  1 16  1  0  0  0  0
  2 17  1  0  0  0  0
  3 10  1  0  0  0  0
  3 42  1  0  0  0  0
  4 14  2  0  0  0  0
  5  8  1  0  0  0  0
  5 14  1  0  0  0  0
  5 28  1  0  0  0  0
  6  7  1  0  0  0  0
  6 25  1  0  0  0  0
  6 43  1  0  0  0  0
  7 26  2  0  0  0  0
  8  9  1  0  0  0  0
  8 10  1  0  0  0  0
  8 27  1  0  0  0  0
  9 16  2  0  0  0  0
  9 17  1  0  0  0  0
 10 29  1  0  0  0  0
 10 30  1  0  0  0  0
 11 14  1  0  0  0  0
 11 15  2  0  0  0  0
 11 18  1  0  0  0  0
 12 13  2  0  0  0  0
 12 19  1  0  0  0  0
 12 20  1  0  0  0  0
 13 15  1  0  0  0  0
 13 21  1  0  0  0  0
 15 31  1  0  0  0  0
 16 22  1  0  0  0  0
 17 23  2  0  0  0  0
 18 19  2  0  0  0  0
 18 32  1  0  0  0  0
 19 33  1  0  0  0  0
 20 25  2  0  0  0  0
 20 26  1  0  0  0  0
 21 34  1  0  0  0  0
 21 35  1  0  0  0  0
 21 36  1  0  0  0  0
 22 24  2  0  0  0  0
 22 37  1  0  0  0  0
 23 24  1  0  0  0  0
 23 38  1  0  0  0  0
 24 39  1  0  0  0  0
 25 40  1  0  0  0  0
 26 41  1  0  0  0  0
M  END
> <PUBCHEM_COMPOUND_CID>
118663056

> <PUBCHEM_CONFORMER_RMSD>
0.8

> <PUBCHEM_CONFORMER_DIVERSEORDER>
1
20
16
12
29
11
17
33
4
32
25
27
21
31
13
10
7
22
24
2
18
26
28
23
14
19
30
5
8
6
3
9
15

> <PUBCHEM_MMFF94_PARTIAL_CHARGES>
37
1 -0.19
10 0.28
11 0.09
12 0.05
13 -0.14
14 0.54
15 -0.15
16 0.19
17 0.19
18 -0.15
19 -0.15
2 -0.19
20 -0.05
21 0.14
22 -0.15
23 -0.15
24 -0.15
25 -0.3
26 0.14
28 0.37
3 -0.68
31 0.15
32 0.15
33 0.15
37 0.15
38 0.15
39 0.15
4 -0.57
40 0.15
41 0.15
42 0.4
43 0.27
5 -0.73
6 0.3
7 -0.71
8 0.44
9 -0.14

> <PUBCHEM_EFFECTIVE_ROTOR_COUNT>
6

> <PUBCHEM_PHARMACOPHORE_FEATURES>
9
1 3 acceptor
1 3 donor
1 4 acceptor
1 5 donor
1 6 donor
1 7 acceptor
5 6 7 20 25 26 rings
6 11 12 13 15 18 19 rings
6 9 16 17 22 23 24 rings

> <PUBCHEM_HEAVY_ATOM_COUNT>
26

> <PUBCHEM_ATOM_DEF_STEREO_COUNT>
1

> <PUBCHEM_ATOM_UDEF_STEREO_COUNT>
0

> <PUBCHEM_BOND_DEF_STEREO_COUNT>
0

> <PUBCHEM_BOND_UDEF_STEREO_COUNT>
0

> <PUBCHEM_ISOTOPIC_ATOM_COUNT>
0

> <PUBCHEM_COMPONENT_COUNT>
1

> <PUBCHEM_CACTVS_TAUTO_COUNT>
20

> <PUBCHEM_CONFORMER_ID>
0712A79000000001

> <PUBCHEM_MMFF94_ENERGY>
61.4717

> <PUBCHEM_FEATURE_SELFOVERLAP>
45.673

> <PUBCHEM_SHAPE_FINGERPRINT>
10 15 17822008761141745644
10165383 225 18410299138322089524
10319926 262 17604694570257509424
10554248 39 17202479988613455717
11135609 201 18268982254177999024
11595378 159 17385995161556827308
11991303 11 13830125110173228893
12403259 415 18336544915605102325
12596602 18 18343025480595653323
12616971 3 16916776349599505223
12730499 353 18411422812929834058
12892183 10 17603856767729104181
13533116 47 18340773637167877091
13673619 4 18117847594944828622
13955234 65 18411697648082608866
14211702 104 13046240398199059449
14251740 57 15864343602475687314
14528608 73 16343983628437462921
146900 427 18131068238108640507
15183329 4 11887682783701831697
15188451 53 14129326403959784624
15210252 30 17417525943012860288
15419008 42 14203048607717108299
15510800 12 11025786549386191320
15575132 122 16845580790506969937
16992610 120 15142111927536394086
17844677 252 18339082566962047357
17857418 61 14851606592110485457
1813 80 15213305205300506367
19315092 285 12685905144772804812
19377110 9 17240481441871653409
1979834 28 18260550030589351140
20567600 234 18335699485731951849
21033648 29 18334565816102891261
21049683 271 18191313685364405654
21130935 74 18336554824839147931
21315764 119 13182753549420478593
21792934 111 18115017512186185845
21859007 373 16443888502444001167
221357 26 15698009530596722376
22149856 69 18115609071370044201
2215653 11 10303815388763949337
23559900 14 18115866291965249422
239999 70 17385731279256725734
3004659 81 13190341244814169418
394071 54 18334863860784186325
4058900 60 14763808351360637063
5104073 3 17968654900541356265
542803 24 17418376896007749349
5718773 13 10954274365061332312
57527585 21 16619525890056770340
59682541 52 10807945838228879977
6823239 73 17749677273192615126
7808743 9 18048874393347834068
960060 61 12391514226170342800
9962374 69 18340193099134059430

> <PUBCHEM_SHAPE_MULTIPOLES>
493.84
15.99
2.16
1.82
15.91
1.21
0.27
-5.57
5.2
-3.7
-0.08
-0.76
-0.57
1.16

> <PUBCHEM_SHAPE_SELFOVERLAP>
1078.663

> <PUBCHEM_SHAPE_VOLUME>
268.9

> <PUBCHEM_COORDINATE_TYPE>
2
5
10

$$$$
118662925
  -OEChem-05102415153D

 48 51  0     1  0  0  0  0  0999 V2000
    2.5017   -2.5335    0.4179 O   0  0  0  0  0  0  0  0  0  0  0  0
    2.4949   -0.3193    1.1066 N   0  0  0  0  0  0  0  0  0  0  0  0
   -2.8706    1.8261    0.7596 N   0  0  0  0  0  0  0  0  0  0  0  0
   -5.8383   -1.5999   -0.3840 N   0  0  0  0  0  0  0  0  0  0  0  0
   -1.8983    2.5814    0.2238 N   0  0  0  0  0  0  0  0  0  0  0  0
   -5.7329   -0.6759   -1.3542 N   0  0  0  0  0  0  0  0  0  0  0  0
   -2.4859    3.5980   -0.3976 N   0  0  0  0  0  0  0  0  0  0  0  0
   -1.7133   -0.4134    0.7814 C   0  0  0  0  0  0  0  0  0  0  0  0
    3.9067   -0.2317    1.4035 C   0  0  1  0  0  0  0  0  0  0  0  0
   -2.2857   -1.2513   -0.1757 C   0  0  0  0  0  0  0  0  0  0  0  0
    0.4496   -1.4008    0.3522 C   0  0  0  0  0  0  0  0  0  0  0  0
   -2.5338    0.5766    1.5451 C   0  0  0  0  0  0  0  0  0  0  0  0
   -0.3456   -0.4882    1.0455 C   0  0  0  0  0  0  0  0  0  0  0  0
    4.7058    0.1739    0.1839 C   0  0  0  0  0  0  0  0  0  0  0  0
   -1.4905   -2.1641   -0.8687 C   0  0  0  0  0  0  0  0  0  0  0  0
    1.8757   -1.4793    0.6268 C   0  0  0  0  0  0  0  0  0  0  0  0
   -0.1228   -2.2386   -0.6049 C   0  0  0  0  0  0  0  0  0  0  0  0
   -3.6935   -1.1948   -0.4660 C   0  0  0  0  0  0  0  0  0  0  0  0
    4.1369    0.7000    2.5916 C   0  0  0  0  0  0  0  0  0  0  0  0
    4.1580    1.0569   -0.7468 C   0  0  0  0  0  0  0  0  0  0  0  0
    5.9900   -0.3354   -0.0096 C   0  0  0  0  0  0  0  0  0  0  0  0
   -4.6455   -1.9452    0.1802 C   0  0  0  0  0  0  0  0  0  0  0  0
   -4.4204   -0.4324   -1.3997 C   0  0  0  0  0  0  0  0  0  0  0  0
   -4.1046    2.3367    0.4977 C   0  0  0  0  0  0  0  0  0  0  0  0
    4.8945    1.4308   -1.8709 C   0  0  0  0  0  0  0  0  0  0  0  0
    6.7263    0.0385   -1.1338 C   0  0  0  0  0  0  0  0  0  0  0  0
    6.1787    0.9218   -2.0643 C   0  0  0  0  0  0  0  0  0  0  0  0
   -3.8371    3.4629   -0.2394 C   0  0  0  0  0  0  0  0  0  0  0  0
    4.2294   -1.2381    1.7009 H   0  0  0  0  0  0  0  0  0  0  0  0
   -3.4855    0.1616    1.8939 H   0  0  0  0  0  0  0  0  0  0  0  0
   -2.0081    0.9537    2.4313 H   0  0  0  0  0  0  0  0  0  0  0  0
    0.0706    0.1542    1.8166 H   0  0  0  0  0  0  0  0  0  0  0  0
    1.9643    0.5438    1.1657 H   0  0  0  0  0  0  0  0  0  0  0  0
   -1.9192   -2.8244   -1.6191 H   0  0  0  0  0  0  0  0  0  0  0  0
    0.4801   -2.9532   -1.1593 H   0  0  0  0  0  0  0  0  0  0  0  0
    3.8154    1.7234    2.3652 H   0  0  0  0  0  0  0  0  0  0  0  0
    3.5703    0.3620    3.4663 H   0  0  0  0  0  0  0  0  0  0  0  0
    5.1968    0.7366    2.8657 H   0  0  0  0  0  0  0  0  0  0  0  0
    3.1670    1.4822   -0.6163 H   0  0  0  0  0  0  0  0  0  0  0  0
    6.4288   -1.0226    0.7088 H   0  0  0  0  0  0  0  0  0  0  0  0
   -4.5888   -2.6778    0.9733 H   0  0  0  0  0  0  0  0  0  0  0  0
   -4.0515    0.2897   -2.1147 H   0  0  0  0  0  0  0  0  0  0  0  0
   -5.0213    1.8811    0.8435 H   0  0  0  0  0  0  0  0  0  0  0  0
    4.4697    2.1211   -2.5939 H   0  0  0  0  0  0  0  0  0  0  0  0
    7.7264   -0.3574   -1.2843 H   0  0  0  0  0  0  0  0  0  0  0  0
   -6.7591   -1.9535   -0.1562 H   0  0  0  0  0  0  0  0  0  0  0  0
    6.7525    1.2137   -2.9390 H   0  0  0  0  0  0  0  0  0  0  0  0
   -4.5353    4.1724   -0.6568 H   0  0  0  0  0  0  0  0  0  0  0  0
  1 16  2  0  0  0  0
  2  9  1  0  0  0  0
  2 16  1  0  0  0  0
  2 33  1  0  0  0  0
  3  5  1  0  0  0  0
  3 12  1  0  0  0  0
  3 24  1  0  0  0  0
  4  6  1  0  0  0  0
  4 22  1  0  0  0  0
  4 46  1  0  0  0  0
  5  7  2  0  0  0  0
  6 23  2  0  0  0  0
  7 28  1  0  0  0  0
  8 10  2  0  0  0  0
  8 12  1  0  0  0  0
  8 13  1  0  0  0  0
  9 14  1  0  0  0  0
  9 19  1  0  0  0  0
  9 29  1  0  0  0  0
 10 15  1  0  0  0  0
 10 18  1  0  0  0  0
 11 13  2  0  0  0  0
 11 16  1  0  0  0  0
 11 17  1  0  0  0  0
 12 30  1  0  0  0  0
 12 31  1  0  0  0  0
 13 32  1  0  0  0  0
 14 20  2  0  0  0  0
 14 21  1  0  0  0  0
 15 17  2  0  0  0  0
 15 34  1  0  0  0  0
 17 35  1  0  0  0  0
 18 22  2  0  0  0  0
 18 23  1  0  0  0  0
 19 36  1  0  0  0  0
 19 37  1  0  0  0  0
 19 38  1  0  0  0  0
 20 25  1  0  0  0  0
 20 39  1  0  0  0  0
 21 26  2  0  0  0  0
 21 40  1  0  0  0  0
 22 41  1  0  0  0  0
 23 42  1  0  0  0  0
 24 28  2  0  0  0  0
 24 43  1  0  0  0  0
 25 27  2  0  0  0  0
 25 44  1  0  0  0  0
 26 27  1  0  0  0  0
 26 45  1  0  0  0  0
 27 47  1  0  0  0  0
 28 48  1  0  0  0  0
M  END
> <PUBCHEM_COMPOUND_CID>
118662925

> <PUBCHEM_CONFORMER_RMSD>
0.8

> <PUBCHEM_CONFORMER_DIVERSEORDER>
1
121
93
186
59
119
80
7
64
56
151
156
41
178
193
141
67
69
8
120
57
84
145
54
190
109
79
99
139
11
122
75
101
49
5
53
89
148
90
125
130
182
33
74
143
195
185
117
6
82
123
108
161
128
194
138
175
87
2
98
154
37
173
167
136
48
95
118
191
40
58
102
177
150
3
27
23
132
4
172
144
35
86
72
126
68
160
55
129
188
97
197
166
22
184
183
176
133
168
70
152
31
196
198
38
77
180
13
192
107
140
42
36
100
153
85
158
71
146
61
137
106
81
155
46
179
181
111
169
10
164
170
104
142
34
115
32
47
92
189
66
105
114
19
30
50
116
124
88
62
43
187
159
9
17
39
25
18
51
147
12
113
112
96
44
165
127
63
135
15
21
73
78
163
171
20
83
91
24
174
60
157
16
76
131
28
45
103
134
65
26
162
29
110
94
14
149
52

> <PUBCHEM_MMFF94_PARTIAL_CHARGES>
41
1 -0.57
10 0.05
11 0.09
12 0.4
13 -0.15
14 -0.14
15 -0.15
16 0.54
17 -0.15
18 -0.05
2 -0.73
20 -0.15
21 -0.15
22 -0.3
23 0.14
24 -0.3
25 -0.15
26 -0.15
27 -0.15
28 0.08
3 0.31
32 0.15
33 0.37
34 0.15
35 0.15
39 0.15
4 0.3
40 0.15
41 0.15
42 0.15
43 0.15
44 0.15
45 0.15
46 0.27
47 0.15
48 0.15
5 -0.42
6 -0.71
7 -0.23
8 -0.14
9 0.44

> <PUBCHEM_EFFECTIVE_ROTOR_COUNT>
7

> <PUBCHEM_PHARMACOPHORE_FEATURES>
8
1 1 acceptor
1 2 donor
1 4 donor
1 6 acceptor
5 3 5 7 24 28 rings
5 4 6 18 22 23 rings
6 14 20 21 25 26 27 rings
6 8 10 11 13 15 17 rings

> <PUBCHEM_HEAVY_ATOM_COUNT>
28

> <PUBCHEM_ATOM_DEF_STEREO_COUNT>
1

> <PUBCHEM_ATOM_UDEF_STEREO_COUNT>
0

> <PUBCHEM_BOND_DEF_STEREO_COUNT>
0

> <PUBCHEM_BOND_UDEF_STEREO_COUNT>
0

> <PUBCHEM_ISOTOPIC_ATOM_COUNT>
0

> <PUBCHEM_COMPONENT_COUNT>
1

> <PUBCHEM_CACTVS_TAUTO_COUNT>
9

> <PUBCHEM_CONFORMER_ID>
0712A70D00000001

> <PUBCHEM_MMFF94_ENERGY>
66.2782

> <PUBCHEM_FEATURE_SELFOVERLAP>
40.598

> <PUBCHEM_SHAPE_FINGERPRINT>
10591671 39 18409168843746259655
10670039 82 18410578383804812324
10871710 139 18409171000220522109
11112241 14 14490469819907505009
11315621 246 17917146199537186423
11513181 2 18267592295154450070
11578080 2 17487356862831979293
12166972 35 17749955595225253733
12390115 104 18060145293395578427
12596602 18 17313387871982103650
12788726 201 18335693945192570227
13383661 66 14472967854484446901
13533116 47 14852146413570118186
13617811 41 18340204193334440639
13782708 43 17346883381442158958
13911987 19 18335410301685130079
14294032 229 18268719325055026625
14856354 85 18338523053257516567
14910302 57 17489020565294858046
15001296 14 18117556442979453780
15082195 135 18337101289747607804
15183329 4 18410583881758635782
15575132 122 18409732867615403077
16991971 28 18126845130855638551
17980427 23 17968108490564923485
19958102 18 17989209243936079278
20645477 70 15769781286546055922
21049683 271 18189614020770565887
21315763 178 11671782659292175692
21641784 216 18410852166347669245
22061861 79 15985106314597056420
22122407 14 17168146749808705956
221357 26 17846498162426222634
22393880 68 17988918947059131840
23536364 44 17489591129977427808
23559900 14 17416681539541427938
249057 25 18041550378474255946
255183 451 17839734109112161463
2838139 119 18259993647820669452
4058900 60 18113618954322411018
46194498 28 17417531440665449952
508706 21 18341625806018476574
563151 74 15285624530809368808
59755656 215 17632864126469579486
6608658 132 18260552203569204652
7237137 82 18202562861055875361

> <PUBCHEM_SHAPE_MULTIPOLES>
540.47
15.65
3.18
1.73
13.1
2.55
0.24
2.5
-6.14
-4.84
-0.37
2.22
0.36
-1.62

> <PUBCHEM_SHAPE_SELFOVERLAP>
1182.152

> <PUBCHEM_SHAPE_VOLUME>
293.5

> <PUBCHEM_COORDINATE_TYPE>
2
5
10

$$$$
118662978
  -OEChem-05102415153D

 53 55  0     1  0  0  0  0  0999 V2000
   -2.4952    0.8821    0.8016 O   0  0  0  0  0  0  0  0  0  0  0  0
   -4.3077    2.1196   -0.9923 O   0  0  0  0  0  0  0  0  0  0  0  0
    2.5844   -2.0919    1.3940 O   0  0  0  0  0  0  0  0  0  0  0  0
    2.4973    0.1981    1.0402 N   0  0  0  0  0  0  0  0  0  0  0  0
   -5.3881   -1.8499   -1.4313 N   0  0  0  0  0  0  0  0  0  0  0  0
   -5.8549   -1.5980   -0.1964 N   0  0  0  0  0  0  0  0  0  0  0  0
   -3.4158    2.8991   -0.1911 C   0  0  0  0  0  0  0  0  0  0  0  0
   -2.1573    2.0703    0.0947 C   0  0  0  0  0  0  0  0  0  0  0  0
    3.8879    0.4656    1.3294 C   0  0  1  0  0  0  0  0  0  0  0  0
   -1.6824   -0.2030    0.6064 C   0  0  0  0  0  0  0  0  0  0  0  0
   -3.0536    4.1621   -0.9746 C   0  0  0  0  0  0  0  0  0  0  0  0
   -4.1622    3.2659    1.0921 C   0  0  0  0  0  0  0  0  0  0  0  0
   -2.1836   -1.3975    0.0885 C   0  0  0  0  0  0  0  0  0  0  0  0
    0.5189   -1.1886    0.7493 C   0  0  0  0  0  0  0  0  0  0  0  0
   -0.3313   -0.0987    0.9367 C   0  0  0  0  0  0  0  0  0  0  0  0
    4.7477    0.3299    0.0912 C   0  0  0  0  0  0  0  0  0  0  0  0
    1.9281   -1.0796    1.0918 C   0  0  0  0  0  0  0  0  0  0  0  0
   -1.3335   -2.4876   -0.0986 C   0  0  0  0  0  0  0  0  0  0  0  0
    0.0177   -2.3832    0.2315 C   0  0  0  0  0  0  0  0  0  0  0  0
    4.0325    1.8317    1.9966 C   0  0  0  0  0  0  0  0  0  0  0  0
   -3.5728   -1.5262   -0.2603 C   0  0  0  0  0  0  0  0  0  0  0  0
    4.2378    0.6933   -1.1552 C   0  0  0  0  0  0  0  0  0  0  0  0
    6.0501   -0.1586    0.1965 C   0  0  0  0  0  0  0  0  0  0  0  0
   -4.0275   -1.8187   -1.5230 C   0  0  0  0  0  0  0  0  0  0  0  0
   -4.7415   -1.4011    0.5145 C   0  0  0  0  0  0  0  0  0  0  0  0
    5.0302    0.5684   -2.2965 C   0  0  0  0  0  0  0  0  0  0  0  0
    6.8424   -0.2836   -0.9447 C   0  0  0  0  0  0  0  0  0  0  0  0
    6.3326    0.0802   -2.1911 C   0  0  0  0  0  0  0  0  0  0  0  0
   -1.6776    1.8093   -0.8587 H   0  0  0  0  0  0  0  0  0  0  0  0
   -1.4476    2.6508    0.6961 H   0  0  0  0  0  0  0  0  0  0  0  0
    4.2117   -0.2950    2.0519 H   0  0  0  0  0  0  0  0  0  0  0  0
   -2.3697    4.8040   -0.4098 H   0  0  0  0  0  0  0  0  0  0  0  0
   -3.9497    4.7431   -1.2208 H   0  0  0  0  0  0  0  0  0  0  0  0
   -2.5809    3.9051   -1.9294 H   0  0  0  0  0  0  0  0  0  0  0  0
   -3.5271    3.8389    1.7755 H   0  0  0  0  0  0  0  0  0  0  0  0
   -5.0545    3.8627    0.8699 H   0  0  0  0  0  0  0  0  0  0  0  0
   -4.5171    2.3704    1.6143 H   0  0  0  0  0  0  0  0  0  0  0  0
    0.0249    0.8282    1.3776 H   0  0  0  0  0  0  0  0  0  0  0  0
    1.9477    0.9773    0.6923 H   0  0  0  0  0  0  0  0  0  0  0  0
   -1.7036   -3.4292   -0.4978 H   0  0  0  0  0  0  0  0  0  0  0  0
    0.6642   -3.2427    0.0743 H   0  0  0  0  0  0  0  0  0  0  0  0
    3.7055    2.6386    1.3304 H   0  0  0  0  0  0  0  0  0  0  0  0
    3.4232    1.8870    2.9055 H   0  0  0  0  0  0  0  0  0  0  0  0
    5.0741    2.0287    2.2724 H   0  0  0  0  0  0  0  0  0  0  0  0
   -5.0941    2.6592   -1.1822 H   0  0  0  0  0  0  0  0  0  0  0  0
    3.2332    1.0911   -1.2676 H   0  0  0  0  0  0  0  0  0  0  0  0
    6.4598   -0.4435    1.1619 H   0  0  0  0  0  0  0  0  0  0  0  0
   -3.5235   -2.0027   -2.4618 H   0  0  0  0  0  0  0  0  0  0  0  0
   -4.8325   -1.1745    1.5676 H   0  0  0  0  0  0  0  0  0  0  0  0
    4.6347    0.8547   -3.2667 H   0  0  0  0  0  0  0  0  0  0  0  0
    7.8567   -0.6633   -0.8628 H   0  0  0  0  0  0  0  0  0  0  0  0
    6.9499   -0.0162   -3.0795 H   0  0  0  0  0  0  0  0  0  0  0  0
   -6.0567   -2.0352   -2.1685 H   0  0  0  0  0  0  0  0  0  0  0  0
  1  8  1  0  0  0  0
  1 10  1  0  0  0  0
  2  7  1  0  0  0  0
  2 45  1  0  0  0  0
  3 17  2  0  0  0  0
  4  9  1  0  0  0  0
  4 17  1  0  0  0  0
  4 39  1  0  0  0  0
  5  6  1  0  0  0  0
  5 24  1  0  0  0  0
  5 53  1  0  0  0  0
  6 25  2  0  0  0  0
  7  8  1  0  0  0  0
  7 11  1  0  0  0  0
  7 12  1  0  0  0  0
  8 29  1  0  0  0  0
  8 30  1  0  0  0  0
  9 16  1  0  0  0  0
  9 20  1  0  0  0  0
  9 31  1  0  0  0  0
 10 13  2  0  0  0  0
 10 15  1  0  0  0  0
 11 32  1  0  0  0  0
 11 33  1  0  0  0  0
 11 34  1  0  0  0  0
 12 35  1  0  0  0  0
 12 36  1  0  0  0  0
 12 37  1  0  0  0  0
 13 18  1  0  0  0  0
 13 21  1  0  0  0  0
 14 15  2  0  0  0  0
 14 17  1  0  0  0  0
 14 19  1  0  0  0  0
 15 38  1  0  0  0  0
 16 22  2  0  0  0  0
 16 23  1  0  0  0  0
 18 19  2  0  0  0  0
 18 40  1  0  0  0  0
 19 41  1  0  0  0  0
 20 42  1  0  0  0  0
 20 43  1  0  0  0  0
 20 44  1  0  0  0  0
 21 24  2  0  0  0  0
 21 25  1  0  0  0  0
 22 26  1  0  0  0  0
 22 46  1  0  0  0  0
 23 27  2  0  0  0  0
 23 47  1  0  0  0  0
 24 48  1  0  0  0  0
 25 49  1  0  0  0  0
 26 28  2  0  0  0  0
 26 50  1  0  0  0  0
 27 28  1  0  0  0  0
 27 51  1  0  0  0  0
 28 52  1  0  0  0  0
M  END
> <PUBCHEM_COMPOUND_CID>
118662978

> <PUBCHEM_CONFORMER_RMSD>
1

> <PUBCHEM_CONFORMER_DIVERSEORDER>
1
9
7
20
3
13
18
26
17
33
34
6
4
30
28
2
8
31
24
21
15
5
27
23
35
25
36
11
29
10
16
19
14
22
12
32

> <PUBCHEM_MMFF94_PARTIAL_CHARGES>
38
1 -0.36
10 0.08
13 0.05
14 0.09
15 -0.15
16 -0.14
17 0.54
18 -0.15
19 -0.15
2 -0.68
21 -0.05
22 -0.15
23 -0.15
24 -0.3
25 0.14
26 -0.15
27 -0.15
28 -0.15
3 -0.57
38 0.15
39 0.37
4 -0.73
40 0.15
41 0.15
45 0.4
46 0.15
47 0.15
48 0.15
49 0.15
5 0.3
50 0.15
51 0.15
52 0.15
53 0.27
6 -0.71
7 0.28
8 0.28
9 0.44

> <PUBCHEM_EFFECTIVE_ROTOR_COUNT>
8

> <PUBCHEM_PHARMACOPHORE_FEATURES>
11
1 1 acceptor
1 2 acceptor
1 2 donor
1 3 acceptor
1 4 donor
1 5 donor
1 6 acceptor
3 7 11 12 hydrophobe
5 5 6 21 24 25 rings
6 10 13 14 15 18 19 rings
6 16 22 23 26 27 28 rings

> <PUBCHEM_HEAVY_ATOM_COUNT>
28

> <PUBCHEM_ATOM_DEF_STEREO_COUNT>
1

> <PUBCHEM_ATOM_UDEF_STEREO_COUNT>
0

> <PUBCHEM_BOND_DEF_STEREO_COUNT>
0

> <PUBCHEM_BOND_UDEF_STEREO_COUNT>
0

> <PUBCHEM_ISOTOPIC_ATOM_COUNT>
0

> <PUBCHEM_COMPONENT_COUNT>
1

> <PUBCHEM_CACTVS_TAUTO_COUNT>
9

> <PUBCHEM_CONFORMER_ID>
0712A74200000001

> <PUBCHEM_MMFF94_ENERGY>
80.737

> <PUBCHEM_FEATURE_SELFOVERLAP>
55.825

> <PUBCHEM_SHAPE_FINGERPRINT>
10670039 82 18334016090564530676
10871710 139 18335422353135820197
11315621 246 18200875179427294527
11578080 2 17915478098964213279
12390115 104 18270687472084281401
12788726 201 18334564751177751811
12954195 1 18201441359142874385
13540713 5 18190728748513144435
13617811 41 18337110167645624951
13627167 48 18262807392317879596
13782708 43 17703512181250652230
14294032 229 18337678486741234609
14347332 77 18131632266331481394
14556957 393 18259705622950151221
14856354 85 18263091062455557107
14910302 57 17632010957207390278
14955137 171 18049448334001253371
15163728 17 18263934254075408590
15183329 4 18341619235214853022
15575132 122 18408322194323346159
1577012 14 18040439863525421436
16991971 28 18196653124145373527
19958102 18 17989486346372416422
21033650 10 18412271627242352280
21315763 178 12895074007593550292
21641784 216 18334570257288973237
22122407 14 15646766795531625204
221357 26 18201156645971695896
22393880 68 18272645732247416568
23536364 44 17846782875354769464
23559900 14 18057884847907964106
249057 25 17894340078161869242
25147074 1 18187636952070260098
255183 451 17838327846561899271
2747138 104 18263648531797964419
4058900 60 17749387035955581106
46194498 28 17774724285633475576
508706 21 18339376213944874302
5252454 2 18265051332093304760
59755656 520 17488481693065242521
6608658 132 18113620053712648324
7237137 82 18413387622938895913
7808743 9 18263085422482671160

> <PUBCHEM_SHAPE_MULTIPOLES>
543.68
15.87
3.65
1.77
14.95
3.34
-0.46
1.11
-6.77
-7.5
-0.27
2.31
0.33
-0.54

> <PUBCHEM_SHAPE_SELFOVERLAP>
1165.526

> <PUBCHEM_SHAPE_VOLUME>
302.9

> <PUBCHEM_COORDINATE_TYPE>
2
5
10

$$$$
90385127
  -OEChem-05102415153D

 59 61  0     1  0  0  0  0  0999 V2000
   -0.3881   -3.4477   -0.3138 O   0  0  0  0  0  0  0  0  0  0  0  0
   -2.3412   -2.2694   -2.3525 O   0  0  0  0  0  0  0  0  0  0  0  0
   -1.0044    0.5215    2.0870 O   0  0  0  0  0  0  0  0  0  0  0  0
   -3.1425   -2.5277   -0.1883 N   0  0  0  0  0  0  0  0  0  0  0  0
   -1.4002    0.4434   -0.1964 N   0  0  0  0  0  0  0  0  0  0  0  0
    7.1837    0.4273    0.2547 N   0  0  0  0  0  0  0  0  0  0  0  0
    7.1058    1.1339   -0.8859 N   0  0  0  0  0  0  0  0  0  0  0  0
   -2.8447    0.4139   -0.1143 C   0  0  2  0  0  0  0  0  0  0  0  0
   -1.3306   -4.0496    0.5766 C   0  0  0  0  0  0  0  0  0  0  0  0
   -3.4450   -0.3995   -1.2710 C   0  0  0  0  0  0  0  0  0  0  0  0
   -2.7426   -3.9043   -0.0100 C   0  0  0  0  0  0  0  0  0  0  0  0
   -3.4050    1.8211   -0.0697 C   0  0  0  0  0  0  0  0  0  0  0  0
   -2.9046   -1.8202   -1.3582 C   0  0  0  0  0  0  0  0  0  0  0  0
   -0.9705   -5.5323    0.7085 C   0  0  0  0  0  0  0  0  0  0  0  0
   -1.1948   -3.3588    1.9347 C   0  0  0  0  0  0  0  0  0  0  0  0
   -0.5951    0.4954    0.9292 C   0  0  0  0  0  0  0  0  0  0  0  0
   -2.7740    2.8456   -0.7754 C   0  0  0  0  0  0  0  0  0  0  0  0
   -4.5515    2.0918    0.6771 C   0  0  0  0  0  0  0  0  0  0  0  0
    0.8677    0.5471    0.6752 C   0  0  0  0  0  0  0  0  0  0  0  0
    2.7669    0.0457   -0.7317 C   0  0  0  0  0  0  0  0  0  0  0  0
    3.6150    0.6449    0.1997 C   0  0  0  0  0  0  0  0  0  0  0  0
    1.3933   -0.0032   -0.4939 C   0  0  0  0  0  0  0  0  0  0  0  0
    1.7159    1.1462    1.6067 C   0  0  0  0  0  0  0  0  0  0  0  0
   -3.2897    4.1410   -0.7344 C   0  0  0  0  0  0  0  0  0  0  0  0
   -5.0672    3.3873    0.7182 C   0  0  0  0  0  0  0  0  0  0  0  0
    3.0895    1.1949    1.3691 C   0  0  0  0  0  0  0  0  0  0  0  0
   -4.4365    4.4118    0.0122 C   0  0  0  0  0  0  0  0  0  0  0  0
    5.0350    0.7075   -0.0211 C   0  0  0  0  0  0  0  0  0  0  0  0
    3.2935   -0.5554   -1.9957 C   0  0  0  0  0  0  0  0  0  0  0  0
    5.9713    0.1459    0.8126 C   0  0  0  0  0  0  0  0  0  0  0  0
    5.7908    1.3020   -1.0492 C   0  0  0  0  0  0  0  0  0  0  0  0
   -3.0944   -0.0659    0.8401 H   0  0  0  0  0  0  0  0  0  0  0  0
   -3.2345    0.0894   -2.2312 H   0  0  0  0  0  0  0  0  0  0  0  0
   -4.5368   -0.4569   -1.1771 H   0  0  0  0  0  0  0  0  0  0  0  0
   -2.7948   -4.3981   -0.9876 H   0  0  0  0  0  0  0  0  0  0  0  0
   -3.4853   -4.3717    0.6461 H   0  0  0  0  0  0  0  0  0  0  0  0
   -3.6548   -2.0898    0.5707 H   0  0  0  0  0  0  0  0  0  0  0  0
   -0.9938    0.5279   -1.1223 H   0  0  0  0  0  0  0  0  0  0  0  0
   -1.6571   -6.0555    1.3819 H   0  0  0  0  0  0  0  0  0  0  0  0
    0.0498   -5.6570    1.0889 H   0  0  0  0  0  0  0  0  0  0  0  0
   -0.9974   -6.0269   -0.2692 H   0  0  0  0  0  0  0  0  0  0  0  0
   -0.1822   -3.4799    2.3368 H   0  0  0  0  0  0  0  0  0  0  0  0
   -1.9049   -3.7634    2.6632 H   0  0  0  0  0  0  0  0  0  0  0  0
   -1.3608   -2.2805    1.8510 H   0  0  0  0  0  0  0  0  0  0  0  0
   -1.8897    2.6646   -1.3797 H   0  0  0  0  0  0  0  0  0  0  0  0
   -5.0533    1.3020    1.2296 H   0  0  0  0  0  0  0  0  0  0  0  0
    0.4999   -3.5521    0.0686 H   0  0  0  0  0  0  0  0  0  0  0  0
    0.7566   -0.5031   -1.2187 H   0  0  0  0  0  0  0  0  0  0  0  0
    1.3250    1.5852    2.5208 H   0  0  0  0  0  0  0  0  0  0  0  0
   -2.8011    4.9383   -1.2869 H   0  0  0  0  0  0  0  0  0  0  0  0
   -5.9603    3.5982    1.2991 H   0  0  0  0  0  0  0  0  0  0  0  0
    3.7314    1.6715    2.1064 H   0  0  0  0  0  0  0  0  0  0  0  0
   -4.8388    5.4202    0.0433 H   0  0  0  0  0  0  0  0  0  0  0  0
    3.5935    0.2282   -2.6984 H   0  0  0  0  0  0  0  0  0  0  0  0
    4.1410   -1.2200   -1.7980 H   0  0  0  0  0  0  0  0  0  0  0  0
    2.5343   -1.1678   -2.4958 H   0  0  0  0  0  0  0  0  0  0  0  0
    5.8932   -0.4182    1.7318 H   0  0  0  0  0  0  0  0  0  0  0  0
    5.4441    1.8557   -1.9104 H   0  0  0  0  0  0  0  0  0  0  0  0
    8.1005    0.1687    0.5972 H   0  0  0  0  0  0  0  0  0  0  0  0
  1  9  1  0  0  0  0
  1 47  1  0  0  0  0
  2 13  2  0  0  0  0
  3 16  2  0  0  0  0
  4 11  1  0  0  0  0
  4 13  1  0  0  0  0
  4 37  1  0  0  0  0
  5  8  1  0  0  0  0
  5 16  1  0  0  0  0
  5 38  1  0  0  0  0
  6  7  1  0  0  0  0
  6 30  1  0  0  0  0
  6 59  1  0  0  0  0
  7 31  2  0  0  0  0
  8 10  1  0  0  0  0
  8 12  1  0  0  0  0
  8 32  1  0  0  0  0
  9 11  1  0  0  0  0
  9 14  1  0  0  0  0
  9 15  1  0  0  0  0
 10 13  1  0  0  0  0
 10 33  1  0  0  0  0
 10 34  1  0  0  0  0
 11 35  1  0  0  0  0
 11 36  1  0  0  0  0
 12 17  2  0  0  0  0
 12 18  1  0  0  0  0
 14 39  1  0  0  0  0
 14 40  1  0  0  0  0
 14 41  1  0  0  0  0
 15 42  1  0  0  0  0
 15 43  1  0  0  0  0
 15 44  1  0  0  0  0
 16 19  1  0  0  0  0
 17 24  1  0  0  0  0
 17 45  1  0  0  0  0
 18 25  2  0  0  0  0
 18 46  1  0  0  0  0
 19 22  2  0  0  0  0
 19 23  1  0  0  0  0
 20 21  2  0  0  0  0
 20 22  1  0  0  0  0
 20 29  1  0  0  0  0
 21 26  1  0  0  0  0
 21 28  1  0  0  0  0
 22 48  1  0  0  0  0
 23 26  2  0  0  0  0
 23 49  1  0  0  0  0
 24 27  2  0  0  0  0
 24 50  1  0  0  0  0
 25 27  1  0  0  0  0
 25 51  1  0  0  0  0
 26 52  1  0  0  0  0
 27 53  1  0  0  0  0
 28 30  2  0  0  0  0
 28 31  1  0  0  0  0
 29 54  1  0  0  0  0
 29 55  1  0  0  0  0
 29 56  1  0  0  0  0
 30 57  1  0  0  0  0
 31 58  1  0  0  0  0
M  END
> <PUBCHEM_COMPOUND_CID>
90385127

> <PUBCHEM_CONFORMER_RMSD>
1

> <PUBCHEM_CONFORMER_DIVERSEORDER>
1
75
70
37
50
62
18
68
74
73
71
43
44
81
28
33
12
45
61
83
25
58
10
27
56
32
11
13
36
77
30
79
65
63
20
72
24
69
26
4
35
49
48
59
60
82
76
47
9
34
38
22
66
52
6
67
53
41
29
21
16
78
46
15
19
40
51
5
8
3
80
64
39
17
55
2
42
54
31
23
14
57
7

> <PUBCHEM_MMFF94_PARTIAL_CHARGES>
43
1 -0.68
10 0.06
11 0.3
12 -0.14
13 0.57
16 0.54
17 -0.15
18 -0.15
19 0.09
2 -0.57
20 -0.14
21 0.05
22 -0.15
23 -0.15
24 -0.15
25 -0.15
26 -0.15
27 -0.15
28 -0.05
29 0.14
3 -0.57
30 -0.3
31 0.14
37 0.37
38 0.37
4 -0.73
45 0.15
46 0.15
47 0.4
48 0.15
49 0.15
5 -0.73
50 0.15
51 0.15
52 0.15
53 0.15
57 0.15
58 0.15
59 0.27
6 0.3
7 -0.71
8 0.44
9 0.28

> <PUBCHEM_EFFECTIVE_ROTOR_COUNT>
10

> <PUBCHEM_PHARMACOPHORE_FEATURES>
12
1 1 acceptor
1 1 donor
1 2 acceptor
1 3 acceptor
1 4 donor
1 5 donor
1 6 donor
1 7 acceptor
3 9 14 15 hydrophobe
5 6 7 28 30 31 rings
6 12 17 18 24 25 27 rings
6 19 20 21 22 23 26 rings

> <PUBCHEM_HEAVY_ATOM_COUNT>
31

> <PUBCHEM_ATOM_DEF_STEREO_COUNT>
1

> <PUBCHEM_ATOM_UDEF_STEREO_COUNT>
0

> <PUBCHEM_BOND_DEF_STEREO_COUNT>
0

> <PUBCHEM_BOND_UDEF_STEREO_COUNT>
0

> <PUBCHEM_ISOTOPIC_ATOM_COUNT>
0

> <PUBCHEM_COMPONENT_COUNT>
1

> <PUBCHEM_CACTVS_TAUTO_COUNT>
14

> <PUBCHEM_CONFORMER_ID>
05632AE700000001

> <PUBCHEM_MMFF94_ENERGY>
74.184

> <PUBCHEM_FEATURE_SELFOVERLAP>
60.9

> <PUBCHEM_SHAPE_FINGERPRINT>
10165383 225 18130228147698101977
10290309 65 18047750399631426821
10675989 125 17837498449046731872
107951 10 18342459206005046887
12293681 160 17916865703665417448
12788726 201 17972052584744608247
14114206 34 18121753244724158391
14659021 117 18265886037517298416
15230672 131 18337111138946809594
15361156 5 18057039327133372293
15439362 3 17831577574963283849
15463212 79 18337383851546216505
15927050 60 18268989800346022975
16990350 14 17619912755895203032
18785283 64 17617092509059651657
20101258 96 18193563491542716233
20642791 178 18121765141599029915
21756936 100 17967535640395821945
22956985 138 9148019743714472341
3298306 158 18124318199319695499
3418910 222 17828766484661892292
3610482 184 18041295334811109804
38695281 34 18191301581207003498
4058900 60 18125449609168776576
4073 2 18412544345313469818
508706 21 18341901835108966278
5283173 99 18342455967663080360
563151 40 18342178843524930131
581034 39 18261392204819847124
59755656 520 18334574620621914904
6669772 16 18198063577675718559
6700243 42 17693140552584751438
9896288 288 18410863140500404385

> <PUBCHEM_SHAPE_MULTIPOLES>
600.43
13.25
6.27
1.64
23.54
7.07
0.11
-13.1
1.74
-11.46
-0.85
0.14
0.54
-0.52

> <PUBCHEM_SHAPE_SELFOVERLAP>
1280.433

> <PUBCHEM_SHAPE_VOLUME>
334.7

> <PUBCHEM_COORDINATE_TYPE>
2
5
10

$$$$
90385109
  -OEChem-05102415153D

 42 44  0     1  0  0  0  0  0999 V2000
    1.5059   -0.8622   -1.9776 O   0  0  0  0  0  0  0  0  0  0  0  0
    1.9035   -1.1853    0.2838 N   0  0  0  0  0  0  0  0  0  0  0  0
   -6.1910    0.8001    1.3680 N   0  0  0  0  0  0  0  0  0  0  0  0
   -6.6722    0.2617    0.2345 N   0  0  0  0  0  0  0  0  0  0  0  0
    3.3194   -1.4520    0.1688 C   0  0  1  0  0  0  0  0  0  0  0  0
    4.1309   -0.1760    0.2316 C   0  0  0  0  0  0  0  0  0  0  0  0
   -0.3229   -0.6327   -0.5282 C   0  0  0  0  0  0  0  0  0  0  0  0
   -3.0096   -0.1132    0.0150 C   0  0  0  0  0  0  0  0  0  0  0  0
   -2.4096    0.4315   -1.1204 C   0  0  0  0  0  0  0  0  0  0  0  0
    3.7489   -2.4723    1.2209 C   0  0  0  0  0  0  0  0  0  0  0  0
    1.0777   -0.9041   -0.8107 C   0  0  0  0  0  0  0  0  0  0  0  0
   -1.0662    0.1718   -1.3920 C   0  0  0  0  0  0  0  0  0  0  0  0
   -0.9229   -1.1774    0.6072 C   0  0  0  0  0  0  0  0  0  0  0  0
   -2.2661   -0.9175    0.8790 C   0  0  0  0  0  0  0  0  0  0  0  0
   -4.3928    0.1400    0.3184 C   0  0  0  0  0  0  0  0  0  0  0  0
    3.7086    0.8800    1.0394 C   0  0  0  0  0  0  0  0  0  0  0  0
    5.3009   -0.0559   -0.5182 C   0  0  0  0  0  0  0  0  0  0  0  0
   -3.1741    1.2990   -2.0689 C   0  0  0  0  0  0  0  0  0  0  0  0
    4.4566    2.0560    1.0974 C   0  0  0  0  0  0  0  0  0  0  0  0
    6.0489    1.1201   -0.4603 C   0  0  0  0  0  0  0  0  0  0  0  0
   -4.8315    0.7523    1.4670 C   0  0  0  0  0  0  0  0  0  0  0  0
   -5.5691   -0.1398   -0.4026 C   0  0  0  0  0  0  0  0  0  0  0  0
    5.6268    2.1760    0.3478 C   0  0  0  0  0  0  0  0  0  0  0  0
    3.4757   -1.9049   -0.8190 H   0  0  0  0  0  0  0  0  0  0  0  0
    1.5301   -1.1111    1.2246 H   0  0  0  0  0  0  0  0  0  0  0  0
    3.5994   -2.0868    2.2362 H   0  0  0  0  0  0  0  0  0  0  0  0
    3.1653   -3.3949    1.1290 H   0  0  0  0  0  0  0  0  0  0  0  0
    4.8088   -2.7278    1.1142 H   0  0  0  0  0  0  0  0  0  0  0  0
   -0.6002    0.6003   -2.2763 H   0  0  0  0  0  0  0  0  0  0  0  0
   -0.3899   -1.8343    1.2883 H   0  0  0  0  0  0  0  0  0  0  0  0
   -2.7168   -1.3613    1.7639 H   0  0  0  0  0  0  0  0  0  0  0  0
    2.8105    0.8111    1.6466 H   0  0  0  0  0  0  0  0  0  0  0  0
    5.6416   -0.8719   -1.1500 H   0  0  0  0  0  0  0  0  0  0  0  0
   -2.5057    1.8104   -2.7711 H   0  0  0  0  0  0  0  0  0  0  0  0
   -3.7203    2.0855   -1.5376 H   0  0  0  0  0  0  0  0  0  0  0  0
   -3.8715    0.6995   -2.6620 H   0  0  0  0  0  0  0  0  0  0  0  0
    4.1300    2.8771    1.7290 H   0  0  0  0  0  0  0  0  0  0  0  0
    6.9602    1.2135   -1.0436 H   0  0  0  0  0  0  0  0  0  0  0  0
   -4.3166    1.1529    2.3294 H   0  0  0  0  0  0  0  0  0  0  0  0
   -5.6749   -0.6231   -1.3638 H   0  0  0  0  0  0  0  0  0  0  0  0
    6.2097    3.0912    0.3938 H   0  0  0  0  0  0  0  0  0  0  0  0
   -6.8495    1.1846    2.0339 H   0  0  0  0  0  0  0  0  0  0  0  0
  1 11  2  0  0  0  0
  2  5  1  0  0  0  0
  2 11  1  0  0  0  0
  2 25  1  0  0  0  0
  3  4  1  0  0  0  0
  3 21  1  0  0  0  0
  3 42  1  0  0  0  0
  4 22  2  0  0  0  0
  5  6  1  0  0  0  0
  5 10  1  0  0  0  0
  5 24  1  0  0  0  0
  6 16  2  0  0  0  0
  6 17  1  0  0  0  0
  7 11  1  0  0  0  0
  7 12  2  0  0  0  0
  7 13  1  0  0  0  0
  8  9  2  0  0  0  0
  8 14  1  0  0  0  0
  8 15  1  0  0  0  0
  9 12  1  0  0  0  0
  9 18  1  0  0  0  0
 10 26  1  0  0  0  0
 10 27  1  0  0  0  0
 10 28  1  0  0  0  0
 12 29  1  0  0  0  0
 13 14  2  0  0  0  0
 13 30  1  0  0  0  0
 14 31  1  0  0  0  0
 15 21  2  0  0  0  0
 15 22  1  0  0  0  0
 16 19  1  0  0  0  0
 16 32  1  0  0  0  0
 17 20  2  0  0  0  0
 17 33  1  0  0  0  0
 18 34  1  0  0  0  0
 18 35  1  0  0  0  0
 18 36  1  0  0  0  0
 19 23  2  0  0  0  0
 19 37  1  0  0  0  0
 20 23  1  0  0  0  0
 20 38  1  0  0  0  0
 21 39  1  0  0  0  0
 22 40  1  0  0  0  0
 23 41  1  0  0  0  0
M  END
> <PUBCHEM_COMPOUND_CID>
90385109

> <PUBCHEM_CONFORMER_RMSD>
0.8

> <PUBCHEM_CONFORMER_DIVERSEORDER>
1
9
16
17
6
11
8
15
3
5
18
7
12
4
14
2
13
10

> <PUBCHEM_MMFF94_PARTIAL_CHARGES>
34
1 -0.57
11 0.54
12 -0.15
13 -0.15
14 -0.15
15 -0.05
16 -0.15
17 -0.15
18 0.14
19 -0.15
2 -0.73
20 -0.15
21 -0.3
22 0.14
23 -0.15
25 0.37
29 0.15
3 0.3
30 0.15
31 0.15
32 0.15
33 0.15
37 0.15
38 0.15
39 0.15
4 -0.71
40 0.15
41 0.15
42 0.27
5 0.44
6 -0.14
7 0.09
8 0.05
9 -0.14

> <PUBCHEM_EFFECTIVE_ROTOR_COUNT>
5

> <PUBCHEM_PHARMACOPHORE_FEATURES>
7
1 1 acceptor
1 2 donor
1 3 donor
1 4 acceptor
5 3 4 15 21 22 rings
6 6 16 17 19 20 23 rings
6 7 8 9 12 13 14 rings

> <PUBCHEM_HEAVY_ATOM_COUNT>
23

> <PUBCHEM_ATOM_DEF_STEREO_COUNT>
1

> <PUBCHEM_ATOM_UDEF_STEREO_COUNT>
0

> <PUBCHEM_BOND_DEF_STEREO_COUNT>
0

> <PUBCHEM_BOND_UDEF_STEREO_COUNT>
0

> <PUBCHEM_ISOTOPIC_ATOM_COUNT>
0

> <PUBCHEM_COMPONENT_COUNT>
1

> <PUBCHEM_CACTVS_TAUTO_COUNT>
7

> <PUBCHEM_CONFORMER_ID>
05632AD500000001

> <PUBCHEM_MMFF94_ENERGY>
59.7904

> <PUBCHEM_FEATURE_SELFOVERLAP>
35.522

> <PUBCHEM_SHAPE_FINGERPRINT>
10 15 17240764021251136204
10165383 225 18114187454380419630
10319926 262 16951387855293674512
10591671 39 16272209708736955421
106641 1 15719678749007161236
10670039 82 15841284670192574480
11796584 16 12391506495181809236
11991303 11 15769769187280689085
12236239 1 17203609289311151580
12403259 415 18114178584122992559
12507560 40 17894906287563185230
12596602 18 18410015416750669643
12616971 3 17845923057467602590
12633257 1 17749667514647038776
12730499 353 18260268538797086410
12892183 10 17240756233968909366
13533116 47 18261392191908759610
13673619 4 17750798728009253394
13685833 64 8286200552526130093
13955234 65 18262512599132887354
14251732 16 18341332292559989419
14251740 57 14129326353068881456
14251751 18 12685094817038545473
14251764 75 18056474178779817544
14341114 176 18186240615289300956
14341114 328 18202562856776979243
14528608 73 17561361807235861856
146900 427 18412260631994348194
14840074 17 18131633408639931493
15183329 4 12751246895368606638
15342168 16 17846780714964886423
15510800 12 9367075505709960748
15575132 122 17632300042982584113
15961568 22 17988652878083457641
17492 89 12541786610906427776
17834072 8 13398631653927699892
17844677 252 18262516970591208685
17857418 61 12829490354772756937
1813 80 13984664715877018494
18222031 100 14129346143835322342
19784866 240 12035442831074557056
200 152 10881397634105576807
20567600 234 18113900506586751573
20567600 247 11386368179279249601
21033648 29 18040702650229346684
21130935 74 17968099669192903107
21315764 119 15051745183055635044
21637258 2 12901831661850264483
21859007 373 15357958063569166903
22122407 14 18059306429831384561
23559900 14 16950861244336312758
3004659 81 11386367019927768866
3009799 131 16878213222077646711
34797466 226 17632587045687056391
3545911 37 18186239524531229030
4058900 60 16343158930714387919
4325135 7 18131348657183020087
44062 13 13542170736602730781
474 4 17561368370141348430
5104073 3 17459180781415385928
542803 24 17988924461602077607
5718773 13 9654759360522057820
57724786 102 18272089418213964352
59682541 52 12391522944442568877
59755656 520 17917709106440695167
633830 44 17846495928885246110
960060 61 8718538437172863554

> <PUBCHEM_SHAPE_MULTIPOLES>
452.52
16.34
1.85
1.54
4.64
0.22
-0.3
-6.65
4.61
-3.1
0.43
0.88
-0.36
0.6

> <PUBCHEM_SHAPE_SELFOVERLAP>
984.471

> <PUBCHEM_SHAPE_VOLUME>
248.2

> <PUBCHEM_COORDINATE_TYPE>
2
5
10

$$$$
137658352
  -OEChem-05102415153D

 42 44  0     1  0  0  0  0  0999 V2000
    4.9417    1.1323   -1.4635 F   0  0  0  0  0  0  0  0  0  0  0  0
   -3.7282    2.2596    0.9565 F   0  0  0  0  0  0  0  0  0  0  0  0
   -2.4695    3.1673   -0.5578 F   0  0  0  0  0  0  0  0  0  0  0  0
    1.5710    0.7920   -1.8154 O   0  0  0  0  0  0  0  0  0  0  0  0
    2.0056   -1.1760   -0.6688 N   0  0  0  0  0  0  0  0  0  0  0  0
   -6.1465   -1.0708    1.3734 N   0  0  0  0  0  0  0  0  0  0  0  0
   -6.6193   -0.5240    0.2404 N   0  0  0  0  0  0  0  0  0  0  0  0
    3.4292   -1.2037   -0.9166 C   0  0  1  0  0  0  0  0  0  0  0  0
    4.1919   -0.4427    0.1463 C   0  0  0  0  0  0  0  0  0  0  0  0
   -0.2492   -0.2681   -0.7853 C   0  0  0  0  0  0  0  0  0  0  0  0
   -2.9477   -0.4634   -0.1045 C   0  0  0  0  0  0  0  0  0  0  0  0
   -2.3815    0.7855   -0.3601 C   0  0  0  0  0  0  0  0  0  0  0  0
    3.9090   -2.6462   -1.0628 C   0  0  0  0  0  0  0  0  0  0  0  0
    1.1575   -0.1671   -1.1402 C   0  0  0  0  0  0  0  0  0  0  0  0
   -1.0322    0.8832   -0.7004 C   0  0  0  0  0  0  0  0  0  0  0  0
   -0.8154   -1.5171   -0.5296 C   0  0  0  0  0  0  0  0  0  0  0  0
   -2.1645   -1.6147   -0.1890 C   0  0  0  0  0  0  0  0  0  0  0  0
   -4.3361   -0.5914    0.2494 C   0  0  0  0  0  0  0  0  0  0  0  0
    4.9148    0.7003   -0.1950 C   0  0  0  0  0  0  0  0  0  0  0  0
    4.1703   -0.8850    1.4691 C   0  0  0  0  0  0  0  0  0  0  0  0
   -3.1889    2.0417   -0.2782 C   0  0  0  0  0  0  0  0  0  0  0  0
    5.6161    1.4011    0.7862 C   0  0  0  0  0  0  0  0  0  0  0  0
    4.8714   -0.1841    2.4505 C   0  0  0  0  0  0  0  0  0  0  0  0
   -4.7852   -1.1344    1.4285 C   0  0  0  0  0  0  0  0  0  0  0  0
   -5.5087   -0.2331   -0.4423 C   0  0  0  0  0  0  0  0  0  0  0  0
    5.5945    0.9588    2.1090 C   0  0  0  0  0  0  0  0  0  0  0  0
    3.5933   -0.7188   -1.8869 H   0  0  0  0  0  0  0  0  0  0  0  0
    1.6433   -1.8744   -0.0276 H   0  0  0  0  0  0  0  0  0  0  0  0
    4.9852   -2.6848   -1.2644 H   0  0  0  0  0  0  0  0  0  0  0  0
    3.3912   -3.1407   -1.8926 H   0  0  0  0  0  0  0  0  0  0  0  0
    3.7139   -3.2403   -0.1630 H   0  0  0  0  0  0  0  0  0  0  0  0
   -0.5865    1.8555   -0.8953 H   0  0  0  0  0  0  0  0  0  0  0  0
   -0.2496   -2.4402   -0.6150 H   0  0  0  0  0  0  0  0  0  0  0  0
   -2.5880   -2.5995   -0.0044 H   0  0  0  0  0  0  0  0  0  0  0  0
    3.6080   -1.7694    1.7561 H   0  0  0  0  0  0  0  0  0  0  0  0
   -4.0031    2.0243   -1.0075 H   0  0  0  0  0  0  0  0  0  0  0  0
    6.1788    2.2910    0.5201 H   0  0  0  0  0  0  0  0  0  0  0  0
    4.8534   -0.5274    3.4807 H   0  0  0  0  0  0  0  0  0  0  0  0
   -4.2765   -1.5511    2.2869 H   0  0  0  0  0  0  0  0  0  0  0  0
   -5.6081    0.2208   -1.4183 H   0  0  0  0  0  0  0  0  0  0  0  0
    6.1402    1.5047    2.8731 H   0  0  0  0  0  0  0  0  0  0  0  0
   -6.8119   -1.3804    2.0708 H   0  0  0  0  0  0  0  0  0  0  0  0
  1 19  1  0  0  0  0
  2 21  1  0  0  0  0
  3 21  1  0  0  0  0
  4 14  2  0  0  0  0
  5  8  1  0  0  0  0
  5 14  1  0  0  0  0
  5 28  1  0  0  0  0
  6  7  1  0  0  0  0
  6 24  1  0  0  0  0
  6 42  1  0  0  0  0
  7 25  2  0  0  0  0
  8  9  1  0  0  0  0
  8 13  1  0  0  0  0
  8 27  1  0  0  0  0
  9 19  1  0  0  0  0
  9 20  2  0  0  0  0
 10 14  1  0  0  0  0
 10 15  2  0  0  0  0
 10 16  1  0  0  0  0
 11 12  2  0  0  0  0
 11 17  1  0  0  0  0
 11 18  1  0  0  0  0
 12 15  1  0  0  0  0
 12 21  1  0  0  0  0
 13 29  1  0  0  0  0
 13 30  1  0  0  0  0
 13 31  1  0  0  0  0
 15 32  1  0  0  0  0
 16 17  2  0  0  0  0
 16 33  1  0  0  0  0
 17 34  1  0  0  0  0
 18 24  2  0  0  0  0
 18 25  1  0  0  0  0
 19 22  2  0  0  0  0
 20 23  1  0  0  0  0
 20 35  1  0  0  0  0
 21 36  1  0  0  0  0
 22 26  1  0  0  0  0
 22 37  1  0  0  0  0
 23 26  2  0  0  0  0
 23 38  1  0  0  0  0
 24 39  1  0  0  0  0
 25 40  1  0  0  0  0
 26 41  1  0  0  0  0
M  END
> <PUBCHEM_COMPOUND_CID>
137658352

> <PUBCHEM_CONFORMER_RMSD>
0.8

> <PUBCHEM_CONFORMER_DIVERSEORDER>
2
63
28
44
29
56
54
73
13
64
7
70
55
41
72
25
62
71
42
22
48
3
31
68
39
61
46
57
74
34
43
45
50
36
66
65
52
26
30
15
18
16
20
67
19
58
32
37
23
51
12
24
14
38
69
33
60
11
8
9
1
5
40
17
35
53
47
59
49
6
27
10
4
21

> <PUBCHEM_MMFF94_PARTIAL_CHARGES>
36
1 -0.19
10 0.09
11 0.05
12 -0.14
14 0.54
15 -0.15
16 -0.15
17 -0.15
18 -0.05
19 0.19
2 -0.34
20 -0.15
21 0.82
22 -0.15
23 -0.15
24 -0.3
25 0.14
26 -0.15
28 0.37
3 -0.34
32 0.15
33 0.15
34 0.15
35 0.15
37 0.15
38 0.15
39 0.15
4 -0.57
40 0.15
41 0.15
42 0.27
5 -0.73
6 0.3
7 -0.71
8 0.44
9 -0.14

> <PUBCHEM_EFFECTIVE_ROTOR_COUNT>
6

> <PUBCHEM_PHARMACOPHORE_FEATURES>
7
1 4 acceptor
1 5 donor
1 6 donor
1 7 acceptor
5 6 7 18 24 25 rings
6 10 11 12 15 16 17 rings
6 9 19 20 22 23 26 rings

> <PUBCHEM_HEAVY_ATOM_COUNT>
26

> <PUBCHEM_ATOM_DEF_STEREO_COUNT>
1

> <PUBCHEM_ATOM_UDEF_STEREO_COUNT>
0

> <PUBCHEM_BOND_DEF_STEREO_COUNT>
0

> <PUBCHEM_BOND_UDEF_STEREO_COUNT>
0

> <PUBCHEM_ISOTOPIC_ATOM_COUNT>
0

> <PUBCHEM_COMPONENT_COUNT>
1

> <PUBCHEM_CACTVS_TAUTO_COUNT>
-1

> <PUBCHEM_CONFORMER_ID>
08347FF000000002

> <PUBCHEM_MMFF94_ENERGY>
59.5979

> <PUBCHEM_FEATURE_SELFOVERLAP>
35.522

> <PUBCHEM_SHAPE_FINGERPRINT>
10 15 18337947991469316680
10319926 262 18265325119690231874
11135609 201 18129932516482407224
11595378 159 18187354416183768832
11796584 16 10737290151633917404
11991303 11 11815891267574008437
12236239 1 17240480312611505783
12403259 415 17988646255084839030
12507560 40 18271525308339493302
12596602 18 17675922109893426208
12892183 10 18336824195658644606
13533116 47 16081083788529368672
13914758 101 16443055076999161517
14251740 57 17168136794428110850
14341114 328 18041272249604155080
14528608 73 14692571039424317010
146900 427 17203608190121634418
15475509 8 11314298426600623087
15510800 12 13335009453370007080
17844677 252 18059300850784533894
17857418 61 16515684454968079043
1813 80 17022627459492661142
18222031 100 16878232982631494342
19377110 9 18040718082342045336
1979834 28 18412827997532924006
20645477 70 12829491446121880362
21033648 29 18130499747800472856
21130935 74 18272379642350754483
21781051 124 10375583854531400069
21792934 111 18339920416413196033
22849339 104 9439112187346149473
23559900 14 18198906899348018358
29717793 49 12612749125068551590
3004659 81 17313396629199147254
3009799 131 18333723620919734093
34797466 226 14979964695996418055
3886686 26 16887201497131618178
393628 194 14977103861652265762
4058900 60 12031252601647505799
5104073 3 18340207362777484570
542803 24 15698001838020092399
57724786 102 16559031606187982656
59682541 52 8141818169896756465
7808743 9 17985534805647490328
8988823 20 16226046725940231852
960060 61 11383826113249428706

> <PUBCHEM_SHAPE_MULTIPOLES>
492.43
16.15
2.2
1.7
2.82
0.63
-0.7
1.02
-7.37
0.06
0.43
-1.97
0.09
1.55

> <PUBCHEM_SHAPE_SELFOVERLAP>
1076.515

> <PUBCHEM_SHAPE_VOLUME>
267.9

> <PUBCHEM_COORDINATE_TYPE>
2
5
10

$$$$
118663071
  -OEChem-05102415153D

 49 51  0     1  0  0  0  0  0999 V2000
    2.7331    1.5535   -0.2520 O   0  0  0  0  0  0  0  0  0  0  0  0
   -2.0466   -1.5215   -1.8752 O   0  0  0  0  0  0  0  0  0  0  0  0
    4.4494    2.1767    1.8712 O   0  0  0  0  0  0  0  0  0  0  0  0
   -2.1713    0.4977   -0.7421 N   0  0  0  0  0  0  0  0  0  0  0  0
   -3.1675    2.8388   -2.1067 N   0  0  0  0  0  0  0  0  0  0  0  0
    5.9468   -1.4718    0.9010 N   0  0  0  0  0  0  0  0  0  0  0  0
    6.3494   -0.7592   -0.1650 N   0  0  0  0  0  0  0  0  0  0  0  0
   -3.5895    0.7066   -0.9272 C   0  0  1  0  0  0  0  0  0  0  0  0
   -4.3758    0.0356    0.1813 C   0  0  0  0  0  0  0  0  0  0  0  0
   -3.9325    2.2010   -1.0378 C   0  0  0  0  0  0  0  0  0  0  0  0
   -0.0598   -0.6950   -0.9436 C   0  0  0  0  0  0  0  0  0  0  0  0
   -1.4826   -0.6170   -1.2343 C   0  0  0  0  0  0  0  0  0  0  0  0
    2.6689   -0.8457   -0.3825 C   0  0  0  0  0  0  0  0  0  0  0  0
    2.0388    0.3969   -0.4525 C   0  0  0  0  0  0  0  0  0  0  0  0
    0.6744    0.4721   -0.7331 C   0  0  0  0  0  0  0  0  0  0  0  0
   -3.8556   -0.0128    1.4746 C   0  0  0  0  0  0  0  0  0  0  0  0
   -5.6197   -0.5335   -0.0921 C   0  0  0  0  0  0  0  0  0  0  0  0
    0.5703   -1.9376   -0.8736 C   0  0  0  0  0  0  0  0  0  0  0  0
    1.9346   -2.0129   -0.5933 C   0  0  0  0  0  0  0  0  0  0  0  0
    4.0740   -0.9463   -0.0929 C   0  0  0  0  0  0  0  0  0  0  0  0
   -4.5793   -0.6305    2.4948 C   0  0  0  0  0  0  0  0  0  0  0  0
   -6.3434   -1.1511    0.9282 C   0  0  0  0  0  0  0  0  0  0  0  0
   -5.8233   -1.1993    2.2216 C   0  0  0  0  0  0  0  0  0  0  0  0
    4.5930   -1.6129    0.9902 C   0  0  0  0  0  0  0  0  0  0  0  0
    2.3065    2.3851    0.8246 C   0  0  0  0  0  0  0  0  0  0  0  0
    5.2010   -0.4409   -0.7683 C   0  0  0  0  0  0  0  0  0  0  0  0
    3.5066    3.1241    1.3846 C   0  0  0  0  0  0  0  0  0  0  0  0
   -3.8590    0.2181   -1.8738 H   0  0  0  0  0  0  0  0  0  0  0  0
   -5.0037    2.3334   -1.2297 H   0  0  0  0  0  0  0  0  0  0  0  0
   -3.7056    2.7160   -0.0966 H   0  0  0  0  0  0  0  0  0  0  0  0
   -1.6898    1.1612   -0.1438 H   0  0  0  0  0  0  0  0  0  0  0  0
    0.2170    1.4535   -0.8230 H   0  0  0  0  0  0  0  0  0  0  0  0
   -2.8978    0.4353    1.7232 H   0  0  0  0  0  0  0  0  0  0  0  0
   -6.0367   -0.5008   -1.0950 H   0  0  0  0  0  0  0  0  0  0  0  0
    0.0153   -2.8589   -1.0306 H   0  0  0  0  0  0  0  0  0  0  0  0
    2.4062   -2.9918   -0.5467 H   0  0  0  0  0  0  0  0  0  0  0  0
   -3.4583    3.8115   -2.1954 H   0  0  0  0  0  0  0  0  0  0  0  0
   -3.3861    2.3921   -2.9963 H   0  0  0  0  0  0  0  0  0  0  0  0
   -4.1763   -0.6650    3.5028 H   0  0  0  0  0  0  0  0  0  0  0  0
   -7.3121   -1.5937    0.7157 H   0  0  0  0  0  0  0  0  0  0  0  0
   -6.3873   -1.6791    3.0161 H   0  0  0  0  0  0  0  0  0  0  0  0
    4.1378   -2.1627    1.8024 H   0  0  0  0  0  0  0  0  0  0  0  0
    1.5649    3.1004    0.4536 H   0  0  0  0  0  0  0  0  0  0  0  0
    1.8555    1.7770    1.6194 H   0  0  0  0  0  0  0  0  0  0  0  0
    5.2378    0.1463   -1.6752 H   0  0  0  0  0  0  0  0  0  0  0  0
    6.6521   -1.8337    1.5305 H   0  0  0  0  0  0  0  0  0  0  0  0
    3.2096    3.7833    2.2054 H   0  0  0  0  0  0  0  0  0  0  0  0
    3.9969    3.7115    0.6020 H   0  0  0  0  0  0  0  0  0  0  0  0
    5.2060    2.6797    2.2177 H   0  0  0  0  0  0  0  0  0  0  0  0
  1 14  1  0  0  0  0
  1 25  1  0  0  0  0
  2 12  2  0  0  0  0
  3 27  1  0  0  0  0
  3 49  1  0  0  0  0
  4  8  1  0  0  0  0
  4 12  1  0  0  0  0
  4 31  1  0  0  0  0
  5 10  1  0  0  0  0
  5 37  1  0  0  0  0
  5 38  1  0  0  0  0
  6  7  1  0  0  0  0
  6 24  1  0  0  0  0
  6 46  1  0  0  0  0
  7 26  2  0  0  0  0
  8  9  1  0  0  0  0
  8 10  1  0  0  0  0
  8 28  1  0  0  0  0
  9 16  2  0  0  0  0
  9 17  1  0  0  0  0
 10 29  1  0  0  0  0
 10 30  1  0  0  0  0
 11 12  1  0  0  0  0
 11 15  2  0  0  0  0
 11 18  1  0  0  0  0
 13 14  2  0  0  0  0
 13 19  1  0  0  0  0
 13 20  1  0  0  0  0
 14 15  1  0  0  0  0
 15 32  1  0  0  0  0
 16 21  1  0  0  0  0
 16 33  1  0  0  0  0
 17 22  2  0  0  0  0
 17 34  1  0  0  0  0
 18 19  2  0  0  0  0
 18 35  1  0  0  0  0
 19 36  1  0  0  0  0
 20 24  2  0  0  0  0
 20 26  1  0  0  0  0
 21 23  2  0  0  0  0
 21 39  1  0  0  0  0
 22 23  1  0  0  0  0
 22 40  1  0  0  0  0
 23 41  1  0  0  0  0
 24 42  1  0  0  0  0
 25 27  1  0  0  0  0
 25 43  1  0  0  0  0
 25 44  1  0  0  0  0
 26 45  1  0  0  0  0
 27 47  1  0  0  0  0
 27 48  1  0  0  0  0
M  END
> <PUBCHEM_COMPOUND_CID>
118663071

> <PUBCHEM_CONFORMER_RMSD>
1

> <PUBCHEM_CONFORMER_DIVERSEORDER>
1
5
16
13
12
18
23
9
25
24
21
20
3
17
10
19
14
6
22
4
8
2
7
15
11

> <PUBCHEM_MMFF94_PARTIAL_CHARGES>
42
1 -0.36
10 0.27
11 0.09
12 0.54
13 0.05
14 0.08
15 -0.15
16 -0.15
17 -0.15
18 -0.15
19 -0.15
2 -0.57
20 -0.05
21 -0.15
22 -0.15
23 -0.15
24 -0.3
25 0.28
26 0.14
27 0.28
3 -0.68
31 0.37
32 0.15
33 0.15
34 0.15
35 0.15
36 0.15
37 0.36
38 0.36
39 0.15
4 -0.73
40 0.15
41 0.15
42 0.15
45 0.15
46 0.27
49 0.4
5 -0.99
6 0.3
7 -0.71
8 0.44
9 -0.14

> <PUBCHEM_EFFECTIVE_ROTOR_COUNT>
9

> <PUBCHEM_PHARMACOPHORE_FEATURES>
12
1 1 acceptor
1 2 acceptor
1 3 acceptor
1 3 donor
1 4 donor
1 5 cation
1 5 donor
1 6 donor
1 7 acceptor
5 6 7 20 24 26 rings
6 11 13 14 15 18 19 rings
6 9 16 17 21 22 23 rings

> <PUBCHEM_HEAVY_ATOM_COUNT>
27

> <PUBCHEM_ATOM_DEF_STEREO_COUNT>
1

> <PUBCHEM_ATOM_UDEF_STEREO_COUNT>
0

> <PUBCHEM_BOND_DEF_STEREO_COUNT>
0

> <PUBCHEM_BOND_UDEF_STEREO_COUNT>
0

> <PUBCHEM_ISOTOPIC_ATOM_COUNT>
0

> <PUBCHEM_COMPONENT_COUNT>
1

> <PUBCHEM_CACTVS_TAUTO_COUNT>
9

> <PUBCHEM_CONFORMER_ID>
0712A79F00000001

> <PUBCHEM_MMFF94_ENERGY>
71.2989

> <PUBCHEM_FEATURE_SELFOVERLAP>
60.903

> <PUBCHEM_SHAPE_FINGERPRINT>
10 15 18333729148210360162
10319926 262 17967806133409785561
105312 117 12607410958178301161
10675989 125 16468679989289656873
11315181 36 16950291697871949767
11545043 162 18040996215670721253
11646440 116 18060700568253062514
12507557 5 18201434740735512173
12616971 3 17418374709737793177
12633257 1 17989205962253581989
13140716 1 18271238434652357382
13583140 156 18336541621507851287
13782708 43 18259706683395914579
13899415 154 18343308050873049646
14341114 328 17203060668233695723
14739800 52 16485552433688653136
14849402 71 18130228280557030800
14950920 106 18339377339431729251
14955137 171 18272381836735593006
15081414 286 17917153793403063606
15238133 3 16343712040169428538
15475509 35 17749096778245010402
15475509 8 17417271865885159572
1601671 61 18201711809387026822
18222031 100 15719392862708660679
18785283 64 18339645641575249068
21033648 29 18334846217285147453
21623969 137 18187651275813046186
22122407 14 17846505777794265521
23559900 14 17168151186831377213
23569943 247 17415286018546949830
25147074 1 17631159956413036823
3178227 256 18412547605041063122
38570 142 17701278038021237620
392239 28 18200887248654414531
437795 51 18261117413513368416
5104073 3 18129936918201490602
5895379 119 15697456480574502056
6009941 240 17825100416145380814
7495541 125 17822017514516748942
8863177 126 18188214302722061546
960060 61 11674873424742234563

> <PUBCHEM_SHAPE_MULTIPOLES>
518.12
15.69
2.69
1.95
2.37
2.24
-0.65
-3.63
-7.17
-1.98
-0.16
2.17
0.34
2.89

> <PUBCHEM_SHAPE_SELFOVERLAP>
1112.836

> <PUBCHEM_SHAPE_VOLUME>
286

> <PUBCHEM_COORDINATE_TYPE>
2
5
10

$$$$
131636097
  -OEChem-05102415153D

 46 48  0     1  0  0  0  0  0999 V2000
    6.4243   -2.5621   -1.3185 F   0  0  0  0  0  0  0  0  0  0  0  0
   -2.8289   -1.9596    2.5535 O   0  0  0  0  0  0  0  0  0  0  0  0
    1.3746    0.4243    2.1485 O   0  0  0  0  0  0  0  0  0  0  0  0
    1.8639    1.5446    0.1782 N   0  0  0  0  0  0  0  0  0  0  0  0
   -6.5601    0.4615   -0.7489 N   0  0  0  0  0  0  0  0  0  0  0  0
   -6.2697   -0.3027   -1.8156 N   0  0  0  0  0  0  0  0  0  0  0  0
   -2.4627   -0.5083    0.6838 C   0  0  0  0  0  0  0  0  0  0  0  0
    3.2655    1.7646    0.4538 C   0  0  1  0  0  0  0  0  0  0  0  0
   -3.0259    0.4037   -0.2089 C   0  0  0  0  0  0  0  0  0  0  0  0
   -3.2451   -1.6663    1.2163 C   0  0  1  0  0  0  0  0  0  0  0  0
   -0.3810    0.7165    0.6218 C   0  0  0  0  0  0  0  0  0  0  0  0
   -1.1402   -0.3519    1.0991 C   0  0  0  0  0  0  0  0  0  0  0  0
    4.1129    0.6044   -0.0220 C   0  0  0  0  0  0  0  0  0  0  0  0
   -2.2664    1.4720   -0.6864 C   0  0  0  0  0  0  0  0  0  0  0  0
    0.9978    0.8803    1.0544 C   0  0  0  0  0  0  0  0  0  0  0  0
   -0.9441    1.6285   -0.2709 C   0  0  0  0  0  0  0  0  0  0  0  0
   -4.3868    0.2645   -0.6535 C   0  0  0  0  0  0  0  0  0  0  0  0
    3.7140    3.0995   -0.1374 C   0  0  0  0  0  0  0  0  0  0  0  0
   -3.0851   -2.9266    0.3633 C   0  0  0  0  0  0  0  0  0  0  0  0
    3.7557   -0.0936   -1.1757 C   0  0  0  0  0  0  0  0  0  0  0  0
    5.2512    0.2327    0.6936 C   0  0  0  0  0  0  0  0  0  0  0  0
   -5.4672    0.8281   -0.0197 C   0  0  0  0  0  0  0  0  0  0  0  0
   -4.9407   -0.4197   -1.7520 C   0  0  0  0  0  0  0  0  0  0  0  0
    4.5368   -1.1629   -1.6141 C   0  0  0  0  0  0  0  0  0  0  0  0
    6.0322   -0.8368    0.2554 C   0  0  0  0  0  0  0  0  0  0  0  0
    5.6750   -1.5345   -0.8984 C   0  0  0  0  0  0  0  0  0  0  0  0
    3.3654    1.8323    1.5450 H   0  0  0  0  0  0  0  0  0  0  0  0
   -4.3078   -1.4207    1.3006 H   0  0  0  0  0  0  0  0  0  0  0  0
   -0.6861   -1.0693    1.7785 H   0  0  0  0  0  0  0  0  0  0  0  0
    1.5349    1.8112   -0.7442 H   0  0  0  0  0  0  0  0  0  0  0  0
   -2.6910    2.1960   -1.3782 H   0  0  0  0  0  0  0  0  0  0  0  0
   -0.3989    2.4910   -0.6428 H   0  0  0  0  0  0  0  0  0  0  0  0
    3.6203    3.1046   -1.2296 H   0  0  0  0  0  0  0  0  0  0  0  0
    4.7607    3.3088    0.1083 H   0  0  0  0  0  0  0  0  0  0  0  0
    3.1022    3.9216    0.2501 H   0  0  0  0  0  0  0  0  0  0  0  0
   -2.0427   -3.2659    0.3567 H   0  0  0  0  0  0  0  0  0  0  0  0
   -3.3981   -2.7643   -0.6719 H   0  0  0  0  0  0  0  0  0  0  0  0
   -3.6781   -3.7475    0.7810 H   0  0  0  0  0  0  0  0  0  0  0  0
    2.8839    0.1812   -1.7627 H   0  0  0  0  0  0  0  0  0  0  0  0
    5.5413    0.7693    1.5930 H   0  0  0  0  0  0  0  0  0  0  0  0
   -5.5608    1.4432    0.8646 H   0  0  0  0  0  0  0  0  0  0  0  0
   -4.4343   -0.9994   -2.5110 H   0  0  0  0  0  0  0  0  0  0  0  0
   -3.3653   -2.7058    2.8715 H   0  0  0  0  0  0  0  0  0  0  0  0
    4.2611   -1.7046   -2.5140 H   0  0  0  0  0  0  0  0  0  0  0  0
    6.9185   -1.1264    0.8122 H   0  0  0  0  0  0  0  0  0  0  0  0
   -7.5296    0.6962   -0.5764 H   0  0  0  0  0  0  0  0  0  0  0  0
  1 26  1  0  0  0  0
  2 10  1  0  0  0  0
  2 43  1  0  0  0  0
  3 15  2  0  0  0  0
  4  8  1  0  0  0  0
  4 15  1  0  0  0  0
  4 30  1  0  0  0  0
  5  6  1  0  0  0  0
  5 22  1  0  0  0  0
  5 46  1  0  0  0  0
  6 23  2  0  0  0  0
  7  9  2  0  0  0  0
  7 10  1  0  0  0  0
  7 12  1  0  0  0  0
  8 13  1  0  0  0  0
  8 18  1  0  0  0  0
  8 27  1  0  0  0  0
  9 14  1  0  0  0  0
  9 17  1  0  0  0  0
 10 19  1  0  0  0  0
 10 28  1  0  0  0  0
 11 12  2  0  0  0  0
 11 15  1  0  0  0  0
 11 16  1  0  0  0  0
 12 29  1  0  0  0  0
 13 20  2  0  0  0  0
 13 21  1  0  0  0  0
 14 16  2  0  0  0  0
 14 31  1  0  0  0  0
 16 32  1  0  0  0  0
 17 22  2  0  0  0  0
 17 23  1  0  0  0  0
 18 33  1  0  0  0  0
 18 34  1  0  0  0  0
 18 35  1  0  0  0  0
 19 36  1  0  0  0  0
 19 37  1  0  0  0  0
 19 38  1  0  0  0  0
 20 24  1  0  0  0  0
 20 39  1  0  0  0  0
 21 25  2  0  0  0  0
 21 40  1  0  0  0  0
 22 41  1  0  0  0  0
 23 42  1  0  0  0  0
 24 26  2  0  0  0  0
 24 44  1  0  0  0  0
 25 26  1  0  0  0  0
 25 45  1  0  0  0  0
M  END
> <PUBCHEM_COMPOUND_CID>
131636097

> <PUBCHEM_CONFORMER_RMSD>
0.8

> <PUBCHEM_CONFORMER_DIVERSEORDER>
2
25
9
38
14
34
20
10
31
21
4
29
37
36
19
27
39
5
24
8
42
18
11
3
32
7
33
41
12
26
35
40
30
23
28
15
1
22
16
6
13
17

> <PUBCHEM_MMFF94_PARTIAL_CHARGES>
36
1 -0.19
10 0.42
11 0.09
12 -0.15
13 -0.14
14 -0.15
15 0.54
16 -0.15
17 -0.05
2 -0.68
20 -0.15
21 -0.15
22 -0.3
23 0.14
24 -0.15
25 -0.15
26 0.19
29 0.15
3 -0.57
30 0.37
31 0.15
32 0.15
39 0.15
4 -0.73
40 0.15
41 0.15
42 0.15
43 0.4
44 0.15
45 0.15
46 0.27
5 0.3
6 -0.71
7 -0.14
8 0.44
9 0.05

> <PUBCHEM_EFFECTIVE_ROTOR_COUNT>
6

> <PUBCHEM_PHARMACOPHORE_FEATURES>
9
1 2 acceptor
1 2 donor
1 3 acceptor
1 4 donor
1 5 donor
1 6 acceptor
5 5 6 17 22 23 rings
6 13 20 21 24 25 26 rings
6 7 9 11 12 14 16 rings

> <PUBCHEM_HEAVY_ATOM_COUNT>
26

> <PUBCHEM_ATOM_DEF_STEREO_COUNT>
2

> <PUBCHEM_ATOM_UDEF_STEREO_COUNT>
0

> <PUBCHEM_BOND_DEF_STEREO_COUNT>
0

> <PUBCHEM_BOND_UDEF_STEREO_COUNT>
0

> <PUBCHEM_ISOTOPIC_ATOM_COUNT>
0

> <PUBCHEM_COMPONENT_COUNT>
1

> <PUBCHEM_CACTVS_TAUTO_COUNT>
11

> <PUBCHEM_CONFORMER_ID>
07D89B8100000002

> <PUBCHEM_MMFF94_ENERGY>
65.7308

> <PUBCHEM_FEATURE_SELFOVERLAP>
45.672

> <PUBCHEM_SHAPE_FINGERPRINT>
10670039 82 16660919968204852636
107951 10 17385443224364121515
10835480 77 18336825415767466840
11135609 201 8213846039215225534
11443803 9 16342598133045959027
11796584 16 18260828224417055522
11991303 11 16732707172972507643
12166972 35 17846497011575570376
12236239 1 16200152092575584760
12596602 18 14764630806852957214
12643181 29 18333448738206723714
12760667 363 18130512941960981696
12892183 10 12103578454341249688
13533116 47 17774999103210521520
1361 87 18263948625590355754
13782708 43 18131348661393578239
13914758 101 16702307819863613009
14251740 57 16056610816011524364
15183329 4 18187642479339475424
15475509 8 18336265652832721189
15510800 12 18130238081593402510
17857418 61 16988560221076691645
19377110 9 14189575251931900246
19784866 240 17275386490741200212
20028762 73 17131835314277983862
20567600 247 17632285787716570783
20645477 70 18272647961499148668
21307412 95 18336272266496677671
21315764 119 17458345191570715166
21781051 124 17313398832996931099
22061861 79 18412263951808759292
2215653 11 18408885131265277820
22393880 68 18113615728912319346
22849339 104 17822296829141305803
23559900 14 18260828245623100008
23569943 247 18200593580202818171
29717793 49 18413103965934539900
3004659 81 18131349709323322420
4015057 19 18271519905466157881
404807 14 17054450444147320783
439807 62 17488731424371575143
44062 13 18114186371014997907
5104073 3 14764061350530536763
5718773 13 18128816340445060174
59755656 215 18113614547780260882
59755656 520 13840264788490850457
633830 44 16588586538482058520
6695519 79 17192363729570442288
8988823 20 16917060084341222824

> <PUBCHEM_SHAPE_MULTIPOLES>
501.11
16.54
2.47
1.68
3.34
0.42
-0.24
5.13
7.28
1.84
-0.1
-0.8
0.75
2.31

> <PUBCHEM_SHAPE_SELFOVERLAP>
1087.325

> <PUBCHEM_SHAPE_VOLUME>
276.4

> <PUBCHEM_COORDINATE_TYPE>
2
5
10

$$$$
90375298
  -OEChem-05102415153D

 47 49  0     1  0  0  0  0  0999 V2000
    6.6398    2.5738    1.0160 F   0  0  0  0  0  0  0  0  0  0  0  0
    1.5425   -0.4070   -2.3858 O   0  0  0  0  0  0  0  0  0  0  0  0
    1.7705   -1.2499   -0.2377 N   0  0  0  0  0  0  0  0  0  0  0  0
   -3.0850   -1.3717    1.2353 N   0  0  0  0  0  0  0  0  0  0  0  0
   -6.0833    1.7899    0.6794 N   0  0  0  0  0  0  0  0  0  0  0  0
   -6.6231    0.9643   -0.2333 N   0  0  0  0  0  0  0  0  0  0  0  0
    3.1552   -1.6460   -0.3590 C   0  0  1  0  0  0  0  0  0  0  0  0
   -2.3791   -0.6417    0.2515 C   0  0  0  0  0  0  0  0  0  0  0  0
   -2.9826    0.4060   -0.4442 C   0  0  0  0  0  0  0  0  0  0  0  0
   -0.3347   -0.2854   -0.9859 C   0  0  0  0  0  0  0  0  0  0  0  0
    4.0900   -0.5144    0.0104 C   0  0  0  0  0  0  0  0  0  0  0  0
   -1.0551   -0.9874   -0.0195 C   0  0  0  0  0  0  0  0  0  0  0  0
    1.0442   -0.6483   -1.2721 C   0  0  0  0  0  0  0  0  0  0  0  0
   -2.2623    1.1078   -1.4108 C   0  0  0  0  0  0  0  0  0  0  0  0
    3.4136   -2.9103    0.4581 C   0  0  0  0  0  0  0  0  0  0  0  0
   -0.9383    0.7623   -1.6816 C   0  0  0  0  0  0  0  0  0  0  0  0
   -4.3463    0.7877   -0.1862 C   0  0  0  0  0  0  0  0  0  0  0  0
    5.3083   -0.3715   -0.6540 C   0  0  0  0  0  0  0  0  0  0  0  0
    3.7332    0.3858    1.0144 C   0  0  0  0  0  0  0  0  0  0  0  0
   -3.8448   -2.5477    0.8674 C   0  0  0  0  0  0  0  0  0  0  0  0
   -3.0608   -0.9455    2.6185 C   0  0  0  0  0  0  0  0  0  0  0  0
   -4.7227    1.7225    0.7472 C   0  0  0  0  0  0  0  0  0  0  0  0
   -5.5572    0.3547   -0.7588 C   0  0  0  0  0  0  0  0  0  0  0  0
    6.1698    0.6716   -0.3140 C   0  0  0  0  0  0  0  0  0  0  0  0
    4.5948    1.4287    1.3545 C   0  0  0  0  0  0  0  0  0  0  0  0
    5.8132    1.5716    0.6902 C   0  0  0  0  0  0  0  0  0  0  0  0
    3.3214   -1.8918   -1.4160 H   0  0  0  0  0  0  0  0  0  0  0  0
   -0.6221   -1.8285    0.5161 H   0  0  0  0  0  0  0  0  0  0  0  0
    1.3530   -1.3353    0.6834 H   0  0  0  0  0  0  0  0  0  0  0  0
   -2.7160    1.9279   -1.9627 H   0  0  0  0  0  0  0  0  0  0  0  0
    3.2455   -2.7365    1.5274 H   0  0  0  0  0  0  0  0  0  0  0  0
    4.4455   -3.2565    0.3349 H   0  0  0  0  0  0  0  0  0  0  0  0
    2.7435   -3.7188    0.1458 H   0  0  0  0  0  0  0  0  0  0  0  0
   -0.3932    1.3242   -2.4356 H   0  0  0  0  0  0  0  0  0  0  0  0
    5.5987   -1.0670   -1.4369 H   0  0  0  0  0  0  0  0  0  0  0  0
    2.7986    0.2921    1.5600 H   0  0  0  0  0  0  0  0  0  0  0  0
   -4.1899   -3.0927    1.7527 H   0  0  0  0  0  0  0  0  0  0  0  0
   -3.2315   -3.2381    0.2781 H   0  0  0  0  0  0  0  0  0  0  0  0
   -4.7257   -2.2788    0.2775 H   0  0  0  0  0  0  0  0  0  0  0  0
   -4.0362   -1.0999    3.0921 H   0  0  0  0  0  0  0  0  0  0  0  0
   -2.8129    0.1173    2.7151 H   0  0  0  0  0  0  0  0  0  0  0  0
   -2.3128   -1.5201    3.1743 H   0  0  0  0  0  0  0  0  0  0  0  0
   -4.1625    2.3344    1.4406 H   0  0  0  0  0  0  0  0  0  0  0  0
   -5.7108   -0.3794   -1.5373 H   0  0  0  0  0  0  0  0  0  0  0  0
    7.1184    0.7832   -0.8307 H   0  0  0  0  0  0  0  0  0  0  0  0
    4.3191    2.1280    2.1384 H   0  0  0  0  0  0  0  0  0  0  0  0
   -6.7045    2.3746    1.2245 H   0  0  0  0  0  0  0  0  0  0  0  0
  1 26  1  0  0  0  0
  2 13  2  0  0  0  0
  3  7  1  0  0  0  0
  3 13  1  0  0  0  0
  3 29  1  0  0  0  0
  4  8  1  0  0  0  0
  4 20  1  0  0  0  0
  4 21  1  0  0  0  0
  5  6  1  0  0  0  0
  5 22  1  0  0  0  0
  5 47  1  0  0  0  0
  6 23  2  0  0  0  0
  7 11  1  0  0  0  0
  7 15  1  0  0  0  0
  7 27  1  0  0  0  0
  8  9  2  0  0  0  0
  8 12  1  0  0  0  0
  9 14  1  0  0  0  0
  9 17  1  0  0  0  0
 10 12  2  0  0  0  0
 10 13  1  0  0  0  0
 10 16  1  0  0  0  0
 11 18  2  0  0  0  0
 11 19  1  0  0  0  0
 12 28  1  0  0  0  0
 14 16  2  0  0  0  0
 14 30  1  0  0  0  0
 15 31  1  0  0  0  0
 15 32  1  0  0  0  0
 15 33  1  0  0  0  0
 16 34  1  0  0  0  0
 17 22  2  0  0  0  0
 17 23  1  0  0  0  0
 18 24  1  0  0  0  0
 18 35  1  0  0  0  0
 19 25  2  0  0  0  0
 19 36  1  0  0  0  0
 20 37  1  0  0  0  0
 20 38  1  0  0  0  0
 20 39  1  0  0  0  0
 21 40  1  0  0  0  0
 21 41  1  0  0  0  0
 21 42  1  0  0  0  0
 22 43  1  0  0  0  0
 23 44  1  0  0  0  0
 24 26  2  0  0  0  0
 24 45  1  0  0  0  0
 25 26  1  0  0  0  0
 25 46  1  0  0  0  0
M  END
> <PUBCHEM_COMPOUND_CID>
90375298

> <PUBCHEM_CONFORMER_RMSD>
0.8

> <PUBCHEM_CONFORMER_DIVERSEORDER>
1
6
8
17
16
19
4
7
15
14
18
5
10
20
9
2
11
12
13
3

> <PUBCHEM_MMFF94_PARTIAL_CHARGES>
36
1 -0.19
10 0.09
11 -0.14
12 -0.15
13 0.54
14 -0.15
16 -0.15
17 -0.05
18 -0.15
19 -0.15
2 -0.57
20 0.37
21 0.37
22 -0.3
23 0.14
24 -0.15
25 -0.15
26 0.19
28 0.15
29 0.37
3 -0.73
30 0.15
34 0.15
35 0.15
36 0.15
4 -0.84
43 0.15
44 0.15
45 0.15
46 0.15
47 0.27
5 0.3
6 -0.71
7 0.44
8 0.1
9 0.05

> <PUBCHEM_EFFECTIVE_ROTOR_COUNT>
6

> <PUBCHEM_PHARMACOPHORE_FEATURES>
8
1 2 acceptor
1 3 donor
1 4 cation
1 5 donor
1 6 acceptor
5 5 6 17 22 23 rings
6 11 18 19 24 25 26 rings
6 8 9 10 12 14 16 rings

> <PUBCHEM_HEAVY_ATOM_COUNT>
26

> <PUBCHEM_ATOM_DEF_STEREO_COUNT>
1

> <PUBCHEM_ATOM_UDEF_STEREO_COUNT>
0

> <PUBCHEM_BOND_DEF_STEREO_COUNT>
0

> <PUBCHEM_BOND_UDEF_STEREO_COUNT>
0

> <PUBCHEM_ISOTOPIC_ATOM_COUNT>
0

> <PUBCHEM_COMPONENT_COUNT>
1

> <PUBCHEM_CACTVS_TAUTO_COUNT>
7

> <PUBCHEM_CONFORMER_ID>
0563048200000001

> <PUBCHEM_MMFF94_ENERGY>
87.9005

> <PUBCHEM_FEATURE_SELFOVERLAP>
40.596

> <PUBCHEM_SHAPE_FINGERPRINT>
10 15 16877949338569510100
10165383 225 18333735707174216742
10591671 39 15769772468466403613
10670039 82 15051741871677482938
11045977 3 18411140242556978358
11370993 144 18338239254164856698
11991303 11 15697987570413517173
12035758 1 17822024090533886505
12553582 1 15936694787245362094
12633257 1 17749385996667985740
12788726 201 16226337997247156884
13140716 1 17604448382911398757
13533116 47 18264206902778495522
13540713 5 17315662813638664911
13583140 156 18272934955097468923
13911987 19 16845572015809071149
14251751 18 10809344438230289208
14341114 176 18113900421135733740
14528608 73 17418086624658558612
14840074 17 17203612600805309841
15183329 4 14620802613235089276
15537594 2 14490478582057410266
15575132 122 16415485921922313705
15961568 22 17989209217818557009
17857418 61 13334743414004376549
17980427 23 17822013163282634791
1813 80 14924235880107091406
20511986 3 18187354420674233319
21033648 29 18340761641798382296
21130935 74 18262241006933777963
21424621 283 18266465300685282129
21623969 137 13117999985508738696
21641784 216 14476964441843704283
21781051 124 14404892657022931421
21859007 373 16153973657135202213
22122407 14 17989212529374934320
23503953 91 17676497146048355159
23559900 14 18041853809197852214
312425 54 17894625959669693282
3383291 50 17313679243270717371
34797466 226 17489593337907005597
3882209 13 17252874256462211123
4058900 60 16630255701634810935
4073 2 18335985345569909986
474 4 16917068837109960766
5104073 3 18260828181093128674
5281201 14 10015578415679945874
5364581 5 17969507197935941460
5718773 13 8430054066068744200
6442390 28 18261954150494991770
6608658 132 15769786731746858801
7226269 152 17894348852801550173

> <PUBCHEM_SHAPE_MULTIPOLES>
502
16.73
2.31
1.7
5.05
0.89
-0.17
-8.82
-4.61
0.73
-0.82
-0.25
-0.04
1.94

> <PUBCHEM_SHAPE_SELFOVERLAP>
1084.857

> <PUBCHEM_SHAPE_VOLUME>
278.2

> <PUBCHEM_COORDINATE_TYPE>
2
5
10

$$$$
90385120
  -OEChem-05102415153D

 46 48  0     1  0  0  0  0  0999 V2000
   -2.2147   -3.1288   -0.0171 O   0  0  0  0  0  0  0  0  0  0  0  0
    1.6832   -0.6997    1.9315 O   0  0  0  0  0  0  0  0  0  0  0  0
    2.1953    1.1583    0.6423 N   0  0  0  0  0  0  0  0  0  0  0  0
   -5.8936    0.6341   -1.7406 N   0  0  0  0  0  0  0  0  0  0  0  0
   -6.3816    0.8791   -0.5127 N   0  0  0  0  0  0  0  0  0  0  0  0
   -2.2106   -0.7595    0.3270 C   0  0  0  0  0  0  0  0  0  0  0  0
    3.6088    1.1865    0.9425 C   0  0  1  0  0  0  0  0  0  0  0  0
   -2.7448    0.4715   -0.0542 C   0  0  0  0  0  0  0  0  0  0  0  0
   -3.0362   -2.0064    0.3188 C   0  0  2  0  0  0  0  0  0  0  0  0
   -0.0778    0.2957    0.7458 C   0  0  0  0  0  0  0  0  0  0  0  0
   -0.8771   -0.8473    0.7269 C   0  0  0  0  0  0  0  0  0  0  0  0
    4.3978    0.3279   -0.0223 C   0  0  0  0  0  0  0  0  0  0  0  0
   -1.9453    1.6145   -0.0357 C   0  0  0  0  0  0  0  0  0  0  0  0
    1.3125    0.2050    1.1628 C   0  0  0  0  0  0  0  0  0  0  0  0
   -0.6120    1.5267    0.3646 C   0  0  0  0  0  0  0  0  0  0  0  0
   -4.1163    0.5890   -0.4717 C   0  0  0  0  0  0  0  0  0  0  0  0
    4.1079    2.6292    0.9864 C   0  0  0  0  0  0  0  0  0  0  0  0
   -3.7140   -2.2705    1.6651 C   0  0  0  0  0  0  0  0  0  0  0  0
    3.9948    0.2243   -1.3537 C   0  0  0  0  0  0  0  0  0  0  0  0
    5.5279   -0.3599    0.4199 C   0  0  0  0  0  0  0  0  0  0  0  0
   -4.5421    0.4530   -1.7706 C   0  0  0  0  0  0  0  0  0  0  0  0
   -5.2912    0.8502    0.2582 C   0  0  0  0  0  0  0  0  0  0  0  0
    4.7220   -0.5670   -2.2430 C   0  0  0  0  0  0  0  0  0  0  0  0
    6.2551   -1.1513   -0.4693 C   0  0  0  0  0  0  0  0  0  0  0  0
    5.8523   -1.2545   -1.8009 C   0  0  0  0  0  0  0  0  0  0  0  0
    3.7260    0.7619    1.9481 H   0  0  0  0  0  0  0  0  0  0  0  0
   -3.7974   -1.9717   -0.4662 H   0  0  0  0  0  0  0  0  0  0  0  0
   -0.4547   -1.8005    1.0356 H   0  0  0  0  0  0  0  0  0  0  0  0
    1.8662    1.8158   -0.0573 H   0  0  0  0  0  0  0  0  0  0  0  0
   -2.3469    2.5836   -0.3231 H   0  0  0  0  0  0  0  0  0  0  0  0
   -0.0342    2.4458    0.3941 H   0  0  0  0  0  0  0  0  0  0  0  0
    3.5383    3.2158    1.7156 H   0  0  0  0  0  0  0  0  0  0  0  0
    5.1660    2.6731    1.2661 H   0  0  0  0  0  0  0  0  0  0  0  0
    4.0000    3.1194    0.0117 H   0  0  0  0  0  0  0  0  0  0  0  0
   -2.9698   -2.4266    2.4546 H   0  0  0  0  0  0  0  0  0  0  0  0
   -4.3142   -3.1856    1.6164 H   0  0  0  0  0  0  0  0  0  0  0  0
   -4.3643   -1.4446    1.9667 H   0  0  0  0  0  0  0  0  0  0  0  0
    3.1284    0.7596   -1.7316 H   0  0  0  0  0  0  0  0  0  0  0  0
    5.8533   -0.2862    1.4541 H   0  0  0  0  0  0  0  0  0  0  0  0
   -4.0218    0.2479   -2.6960 H   0  0  0  0  0  0  0  0  0  0  0  0
   -5.4020    1.0218    1.3197 H   0  0  0  0  0  0  0  0  0  0  0  0
   -2.7831   -3.9179   -0.0225 H   0  0  0  0  0  0  0  0  0  0  0  0
    4.4106   -0.6450   -3.2806 H   0  0  0  0  0  0  0  0  0  0  0  0
    7.1354   -1.6863   -0.1253 H   0  0  0  0  0  0  0  0  0  0  0  0
   -6.5420    0.6041   -2.5175 H   0  0  0  0  0  0  0  0  0  0  0  0
    6.4191   -1.8698   -2.4935 H   0  0  0  0  0  0  0  0  0  0  0  0
  1  9  1  0  0  0  0
  1 42  1  0  0  0  0
  2 14  2  0  0  0  0
  3  7  1  0  0  0  0
  3 14  1  0  0  0  0
  3 29  1  0  0  0  0
  4  5  1  0  0  0  0
  4 21  1  0  0  0  0
  4 45  1  0  0  0  0
  5 22  2  0  0  0  0
  6  8  2  0  0  0  0
  6  9  1  0  0  0  0
  6 11  1  0  0  0  0
  7 12  1  0  0  0  0
  7 17  1  0  0  0  0
  7 26  1  0  0  0  0
  8 13  1  0  0  0  0
  8 16  1  0  0  0  0
  9 18  1  0  0  0  0
  9 27  1  0  0  0  0
 10 11  2  0  0  0  0
 10 14  1  0  0  0  0
 10 15  1  0  0  0  0
 11 28  1  0  0  0  0
 12 19  2  0  0  0  0
 12 20  1  0  0  0  0
 13 15  2  0  0  0  0
 13 30  1  0  0  0  0
 15 31  1  0  0  0  0
 16 21  2  0  0  0  0
 16 22  1  0  0  0  0
 17 32  1  0  0  0  0
 17 33  1  0  0  0  0
 17 34  1  0  0  0  0
 18 35  1  0  0  0  0
 18 36  1  0  0  0  0
 18 37  1  0  0  0  0
 19 23  1  0  0  0  0
 19 38  1  0  0  0  0
 20 24  2  0  0  0  0
 20 39  1  0  0  0  0
 21 40  1  0  0  0  0
 22 41  1  0  0  0  0
 23 25  2  0  0  0  0
 23 43  1  0  0  0  0
 24 25  1  0  0  0  0
 24 44  1  0  0  0  0
 25 46  1  0  0  0  0
M  END
> <PUBCHEM_COMPOUND_CID>
90385120

> <PUBCHEM_CONFORMER_RMSD>
0.8

> <PUBCHEM_CONFORMER_DIVERSEORDER>
2
29
24
32
21
30
13
25
15
39
36
27
34
12
1
26
6
31
41
37
3
22
38
40
28
23
9
11
33
18
4
42
35
14
10
5
19
17
7
20
16
8

> <PUBCHEM_MMFF94_PARTIAL_CHARGES>
36
1 -0.68
10 0.09
11 -0.15
12 -0.14
13 -0.15
14 0.54
15 -0.15
16 -0.05
19 -0.15
2 -0.57
20 -0.15
21 -0.3
22 0.14
23 -0.15
24 -0.15
25 -0.15
28 0.15
29 0.37
3 -0.73
30 0.15
31 0.15
38 0.15
39 0.15
4 0.3
40 0.15
41 0.15
42 0.4
43 0.15
44 0.15
45 0.27
46 0.15
5 -0.71
6 -0.14
7 0.44
8 0.05
9 0.42

> <PUBCHEM_EFFECTIVE_ROTOR_COUNT>
6

> <PUBCHEM_PHARMACOPHORE_FEATURES>
9
1 1 acceptor
1 1 donor
1 2 acceptor
1 3 donor
1 4 donor
1 5 acceptor
5 4 5 16 21 22 rings
6 12 19 20 23 24 25 rings
6 6 8 10 11 13 15 rings

> <PUBCHEM_HEAVY_ATOM_COUNT>
25

> <PUBCHEM_ATOM_DEF_STEREO_COUNT>
1

> <PUBCHEM_ATOM_UDEF_STEREO_COUNT>
1

> <PUBCHEM_BOND_DEF_STEREO_COUNT>
0

> <PUBCHEM_BOND_UDEF_STEREO_COUNT>
0

> <PUBCHEM_ISOTOPIC_ATOM_COUNT>
0

> <PUBCHEM_COMPONENT_COUNT>
1

> <PUBCHEM_CACTVS_TAUTO_COUNT>
7

> <PUBCHEM_CONFORMER_ID>
05632AE000000002

> <PUBCHEM_MMFF94_ENERGY>
65.6875

> <PUBCHEM_FEATURE_SELFOVERLAP>
45.672

> <PUBCHEM_SHAPE_FINGERPRINT>
10670039 82 17604429579291993380
107951 10 17821731628583037963
10835480 77 18271521013715536952
11796584 16 18411982473149459274
11991303 11 17676490566517855467
12236239 1 16660365878620872704
12596602 18 12901543512400106005
12643181 29 18410009927703661706
12788726 201 18269827623937567897
13540713 4 18192423302575059689
13914758 101 15626231174247602619
14840074 17 15068627092830321815
15131766 46 14562823199716329470
15183329 4 18411419475523648994
15475509 8 18272656697468312657
15510800 12 17703523112290678174
17857418 61 15554445201771850172
19784866 240 15913330173739385908
20028762 73 15769780096755577326
20645477 70 17704349970719776356
21307412 95 18272944794872897398
21315764 119 18041001683406909886
21521239 73 17703494563589664311
22061861 79 18131633391549057500
2215653 11 18272933812809812844
22393880 68 18335698381851815922
22849339 104 18335143137112207247
2303208 19 18335993055125474587
23536379 177 16917065551549760105
23559900 14 18340483460893237192
23569943 247 17702387252217740039
268830 7 13768197298726880996
29717793 49 17989203737777371152
3004659 81 17203609277122764052
3298306 158 18412547591713588606
34797466 226 18338795735971558601
3545911 37 18113051627965320961
4015057 19 17846209007895369769
404807 14 16123622604480257391
4058900 60 17678453061866053145
439807 62 16342842374618643765
44062 13 18261678163605257623
542803 24 15213017145970060176
5718773 13 17559680526089675814
59755656 215 18336827494325338078
59755656 520 18342466920198827379
633830 44 17168143502886789152
6695519 79 16694984243172158066
8988823 20 15697990843594658216
960060 61 17561364006575979180

> <PUBCHEM_SHAPE_MULTIPOLES>
487.81
16.01
2.21
1.73
4.11
0.66
0.54
0.99
7.1
-0.34
-0.65
0.51
0.37
2.7

> <PUBCHEM_SHAPE_SELFOVERLAP>
1056.339

> <PUBCHEM_SHAPE_VOLUME>
268.3

> <PUBCHEM_COORDINATE_TYPE>
2
5
10

$$$$
118662945
  -OEChem-05102415153D

 47 49  0     1  0  0  0  0  0999 V2000
   -2.8571    3.2177   -1.9900 O   0  0  0  0  0  0  0  0  0  0  0  0
    2.3912   -1.3697   -1.3267 O   0  0  0  0  0  0  0  0  0  0  0  0
   -1.2205    2.0127    1.9061 O   0  0  0  0  0  0  0  0  0  0  0  0
   -1.7563    1.2691   -0.2235 N   0  0  0  0  0  0  0  0  0  0  0  0
    6.5477   -0.8290    0.4747 N   0  0  0  0  0  0  0  0  0  0  0  0
    6.5797   -0.5584   -0.8413 N   0  0  0  0  0  0  0  0  0  0  0  0
   -3.1536    1.6473   -0.1851 C   0  0  2  0  0  0  0  0  0  0  0  0
   -3.9965    0.7036   -1.0571 C   0  0  0  0  0  0  0  0  0  0  0  0
   -3.3161    3.0960   -0.6486 C   0  0  0  0  0  0  0  0  0  0  0  0
   -4.2522   -0.6346   -0.4052 C   0  0  0  0  0  0  0  0  0  0  0  0
   -0.9006    1.4889    0.8422 C   0  0  0  0  0  0  0  0  0  0  0  0
    0.5089    1.0678    0.6354 C   0  0  0  0  0  0  0  0  0  0  0  0
   -3.3620   -1.6896   -0.6060 C   0  0  0  0  0  0  0  0  0  0  0  0
   -5.3785   -0.8155    0.3975 C   0  0  0  0  0  0  0  0  0  0  0  0
    3.1567    0.2802    0.2448 C   0  0  0  0  0  0  0  0  0  0  0  0
    0.8055    0.0363   -0.2554 C   0  0  0  0  0  0  0  0  0  0  0  0
    2.1294   -0.3576   -0.4508 C   0  0  0  0  0  0  0  0  0  0  0  0
    1.5361    1.7056    1.3311 C   0  0  0  0  0  0  0  0  0  0  0  0
    2.8599    1.3116    1.1359 C   0  0  0  0  0  0  0  0  0  0  0  0
    4.5283   -0.1089    0.0572 C   0  0  0  0  0  0  0  0  0  0  0  0
   -3.5980   -2.9256   -0.0039 C   0  0  0  0  0  0  0  0  0  0  0  0
   -5.6146   -2.0515    0.9995 C   0  0  0  0  0  0  0  0  0  0  0  0
   -4.7243   -3.1064    0.7991 C   0  0  0  0  0  0  0  0  0  0  0  0
    5.3419   -0.5770    1.0601 C   0  0  0  0  0  0  0  0  0  0  0  0
    5.3434   -0.1189   -1.0906 C   0  0  0  0  0  0  0  0  0  0  0  0
    2.4016   -2.6942   -0.7994 C   0  0  0  0  0  0  0  0  0  0  0  0
   -3.4966    1.5932    0.8561 H   0  0  0  0  0  0  0  0  0  0  0  0
   -3.5267    0.5460   -2.0374 H   0  0  0  0  0  0  0  0  0  0  0  0
   -4.9709    1.1635   -1.2707 H   0  0  0  0  0  0  0  0  0  0  0  0
   -2.7264    3.7753   -0.0239 H   0  0  0  0  0  0  0  0  0  0  0  0
   -4.3653    3.4065   -0.6071 H   0  0  0  0  0  0  0  0  0  0  0  0
   -1.3940    0.9388   -1.1118 H   0  0  0  0  0  0  0  0  0  0  0  0
   -2.4816   -1.5625   -1.2302 H   0  0  0  0  0  0  0  0  0  0  0  0
   -6.0782   -0.0007    0.5636 H   0  0  0  0  0  0  0  0  0  0  0  0
    0.0279   -0.5011   -0.7911 H   0  0  0  0  0  0  0  0  0  0  0  0
    1.3258    2.5152    2.0250 H   0  0  0  0  0  0  0  0  0  0  0  0
    3.6455    1.8263    1.6844 H   0  0  0  0  0  0  0  0  0  0  0  0
   -2.9049   -3.7470   -0.1601 H   0  0  0  0  0  0  0  0  0  0  0  0
   -6.4912   -2.1923    1.6251 H   0  0  0  0  0  0  0  0  0  0  0  0
   -2.9764    4.1475   -2.2484 H   0  0  0  0  0  0  0  0  0  0  0  0
   -4.9080   -4.0686    1.2681 H   0  0  0  0  0  0  0  0  0  0  0  0
    5.1815   -0.7536    2.1147 H   0  0  0  0  0  0  0  0  0  0  0  0
    5.0919    0.1756   -2.0999 H   0  0  0  0  0  0  0  0  0  0  0  0
    7.3884   -1.1855    0.9118 H   0  0  0  0  0  0  0  0  0  0  0  0
    1.4063   -2.9658   -0.4335 H   0  0  0  0  0  0  0  0  0  0  0  0
    3.1354   -2.7920    0.0065 H   0  0  0  0  0  0  0  0  0  0  0  0
    2.6759   -3.3807   -1.6051 H   0  0  0  0  0  0  0  0  0  0  0  0
  1  9  1  0  0  0  0
  1 40  1  0  0  0  0
  2 17  1  0  0  0  0
  2 26  1  0  0  0  0
  3 11  2  0  0  0  0
  4  7  1  0  0  0  0
  4 11  1  0  0  0  0
  4 32  1  0  0  0  0
  5  6  1  0  0  0  0
  5 24  1  0  0  0  0
  5 44  1  0  0  0  0
  6 25  2  0  0  0  0
  7  8  1  0  0  0  0
  7  9  1  0  0  0  0
  7 27  1  0  0  0  0
  8 10  1  0  0  0  0
  8 28  1  0  0  0  0
  8 29  1  0  0  0  0
  9 30  1  0  0  0  0
  9 31  1  0  0  0  0
 10 13  2  0  0  0  0
 10 14  1  0  0  0  0
 11 12  1  0  0  0  0
 12 16  2  0  0  0  0
 12 18  1  0  0  0  0
 13 21  1  0  0  0  0
 13 33  1  0  0  0  0
 14 22  2  0  0  0  0
 14 34  1  0  0  0  0
 15 17  2  0  0  0  0
 15 19  1  0  0  0  0
 15 20  1  0  0  0  0
 16 17  1  0  0  0  0
 16 35  1  0  0  0  0
 18 19  2  0  0  0  0
 18 36  1  0  0  0  0
 19 37  1  0  0  0  0
 20 24  2  0  0  0  0
 20 25  1  0  0  0  0
 21 23  2  0  0  0  0
 21 38  1  0  0  0  0
 22 23  1  0  0  0  0
 22 39  1  0  0  0  0
 23 41  1  0  0  0  0
 24 42  1  0  0  0  0
 25 43  1  0  0  0  0
 26 45  1  0  0  0  0
 26 46  1  0  0  0  0
 26 47  1  0  0  0  0
M  END
> <PUBCHEM_COMPOUND_CID>
118662945

> <PUBCHEM_CONFORMER_RMSD>
0.8

> <PUBCHEM_CONFORMER_DIVERSEORDER>
1
68
41
19
18
17
21
61
46
65
27
62
56
54
49
70
48
37
22
8
30
35
63
77
69
13
14
71
83
36
60
51
6
73
34
26
53
81
32
40
78
55
7
80
47
85
66
52
57
87
67
38
50
76
82
28
74
59
84
43
29
4
15
79
24
42
75
44
11
31
16
72
9
10
12
23
58
2
64
33
25
45
20
3
39
86
5

> <PUBCHEM_MMFF94_PARTIAL_CHARGES>
39
1 -0.68
10 -0.14
11 0.54
12 0.09
13 -0.15
14 -0.15
15 0.05
16 -0.15
17 0.08
18 -0.15
19 -0.15
2 -0.36
20 -0.05
21 -0.15
22 -0.15
23 -0.15
24 -0.3
25 0.14
26 0.28
3 -0.57
32 0.37
33 0.15
34 0.15
35 0.15
36 0.15
37 0.15
38 0.15
39 0.15
4 -0.73
40 0.4
41 0.15
42 0.15
43 0.15
44 0.27
5 0.3
6 -0.71
7 0.3
8 0.14
9 0.28

> <PUBCHEM_EFFECTIVE_ROTOR_COUNT>
8

> <PUBCHEM_PHARMACOPHORE_FEATURES>
10
1 1 acceptor
1 1 donor
1 2 acceptor
1 3 acceptor
1 4 donor
1 5 donor
1 6 acceptor
5 5 6 20 24 25 rings
6 10 13 14 21 22 23 rings
6 12 15 16 17 18 19 rings

> <PUBCHEM_HEAVY_ATOM_COUNT>
26

> <PUBCHEM_ATOM_DEF_STEREO_COUNT>
1

> <PUBCHEM_ATOM_UDEF_STEREO_COUNT>
0

> <PUBCHEM_BOND_DEF_STEREO_COUNT>
0

> <PUBCHEM_BOND_UDEF_STEREO_COUNT>
0

> <PUBCHEM_ISOTOPIC_ATOM_COUNT>
0

> <PUBCHEM_COMPONENT_COUNT>
1

> <PUBCHEM_CACTVS_TAUTO_COUNT>
18

> <PUBCHEM_CONFORMER_ID>
0712A72100000001

> <PUBCHEM_MMFF94_ENERGY>
72.8608

> <PUBCHEM_FEATURE_SELFOVERLAP>
50.751

> <PUBCHEM_SHAPE_FINGERPRINT>
10290309 65 18269841921868398175
11135609 12 18412552015407752929
11796584 16 18191579758033919986
11809386 21 18187638089977903299
11963148 33 18412258450436948334
12166972 35 17676491699940010326
12633257 1 17417534743221000687
12760667 363 18201435909209131803
13402501 40 18342742957103934051
13631057 29 18410009953088200667
13673619 4 18340771537303065217
14211702 104 18271248201856829486
14251751 18 18409167739854852714
14251764 30 17751652176596953971
14617045 38 18341618113938173583
14790565 3 16904110293776546336
15183329 4 15791443829955020522
15361156 5 18343297094137846989
20505436 4 16951962839799044609
21150785 3 17603873334156358910
221490 88 18343298210322740032
22182313 1 17703237226076053526
23559900 14 18341038705332652465
2838139 119 8214149512360532083
329604 57 18410860992383629844
4073 2 18271525312629296232
439807 62 18186801396384997627
445580 160 18343871004610346374
484985 159 18342460344619695395
484989 97 18270690874178414242
5104073 3 18131347514521311888
531348 171 17824256003884041816
54583773 228 18337680819567034708
57307002 85 18337687389670180714
59755656 215 18342457023760993415
6700243 42 18124909830817125908
7495541 125 18411980291163518056
8863177 126 18270116949671117346
9862886 166 18408323297782093282

> <PUBCHEM_SHAPE_MULTIPOLES>
502.52
14.96
3.39
1.36
10.06
0.16
0
-8.52
-0.08
-5.38
-0.37
0.01
0.55
2.28

> <PUBCHEM_SHAPE_SELFOVERLAP>
1081.662

> <PUBCHEM_SHAPE_VOLUME>
277.2

> <PUBCHEM_COORDINATE_TYPE>
2
5
10

$$$$
118662953
  -OEChem-05102415153D

 47 49  0     1  0  0  0  0  0999 V2000
    3.6701    2.6257   -0.1358 O   0  0  0  0  0  0  0  0  0  0  0  0
   -3.5500   -2.0977    0.2852 O   0  0  0  0  0  0  0  0  0  0  0  0
    1.1714   -1.2595    1.9215 O   0  0  0  0  0  0  0  0  0  0  0  0
    1.7831    0.6320    0.7278 N   0  0  0  0  0  0  0  0  0  0  0  0
   -6.3025    1.0486   -1.5422 N   0  0  0  0  0  0  0  0  0  0  0  0
   -6.8407    0.5726   -0.4065 N   0  0  0  0  0  0  0  0  0  0  0  0
    3.1974    0.5633    1.0177 C   0  0  1  0  0  0  0  0  0  0  0  0
    3.9129   -0.2971   -0.0013 C   0  0  0  0  0  0  0  0  0  0  0  0
    3.7966    1.9684    1.1210 C   0  0  0  0  0  0  0  0  0  0  0  0
   -0.5353   -0.1035    0.8039 C   0  0  0  0  0  0  0  0  0  0  0  0
    0.8495   -0.2956    1.2043 C   0  0  0  0  0  0  0  0  0  0  0  0
    5.0003   -1.0798    0.3873 C   0  0  0  0  0  0  0  0  0  0  0  0
    3.4850   -0.3075   -1.3288 C   0  0  0  0  0  0  0  0  0  0  0  0
   -3.1926    0.2665    0.0389 C   0  0  0  0  0  0  0  0  0  0  0  0
   -1.3988   -1.1965    0.7314 C   0  0  0  0  0  0  0  0  0  0  0  0
   -2.7275   -1.0116    0.3490 C   0  0  0  0  0  0  0  0  0  0  0  0
   -1.0004    1.1746    0.4939 C   0  0  0  0  0  0  0  0  0  0  0  0
   -2.3289    1.3595    0.1112 C   0  0  0  0  0  0  0  0  0  0  0  0
   -4.5589    0.4798   -0.3558 C   0  0  0  0  0  0  0  0  0  0  0  0
    5.6597   -1.8728   -0.5520 C   0  0  0  0  0  0  0  0  0  0  0  0
    4.1445   -1.1005   -2.2681 C   0  0  0  0  0  0  0  0  0  0  0  0
    5.2320   -1.8829   -1.8797 C   0  0  0  0  0  0  0  0  0  0  0  0
   -4.9391    1.0150   -1.5624 C   0  0  0  0  0  0  0  0  0  0  0  0
   -5.7707    0.2267    0.3143 C   0  0  0  0  0  0  0  0  0  0  0  0
    4.2232    3.9331   -0.0958 C   0  0  0  0  0  0  0  0  0  0  0  0
   -2.9801   -3.3606    0.6211 C   0  0  0  0  0  0  0  0  0  0  0  0
    3.2968    0.0833    2.0000 H   0  0  0  0  0  0  0  0  0  0  0  0
    3.2647    2.5466    1.8865 H   0  0  0  0  0  0  0  0  0  0  0  0
    4.8567    1.9101    1.3966 H   0  0  0  0  0  0  0  0  0  0  0  0
    1.4895    1.3467    0.0696 H   0  0  0  0  0  0  0  0  0  0  0  0
    5.3446   -1.0791    1.4180 H   0  0  0  0  0  0  0  0  0  0  0  0
    2.6507    0.3003   -1.6672 H   0  0  0  0  0  0  0  0  0  0  0  0
   -0.9826   -2.1675    0.9764 H   0  0  0  0  0  0  0  0  0  0  0  0
   -0.3708    2.0565    0.5681 H   0  0  0  0  0  0  0  0  0  0  0  0
   -2.6736    2.3660   -0.1152 H   0  0  0  0  0  0  0  0  0  0  0  0
    6.5067   -2.4818   -0.2498 H   0  0  0  0  0  0  0  0  0  0  0  0
    3.8136   -1.1063   -3.3026 H   0  0  0  0  0  0  0  0  0  0  0  0
    5.7461   -2.4995   -2.6111 H   0  0  0  0  0  0  0  0  0  0  0  0
   -4.3811    1.3677   -2.4189 H   0  0  0  0  0  0  0  0  0  0  0  0
   -5.9232   -0.1946    1.2982 H   0  0  0  0  0  0  0  0  0  0  0  0
    4.0974    4.3902   -1.0810 H   0  0  0  0  0  0  0  0  0  0  0  0
    5.2921    3.8910    0.1349 H   0  0  0  0  0  0  0  0  0  0  0  0
    3.7014    4.5485    0.6434 H   0  0  0  0  0  0  0  0  0  0  0  0
   -6.9268    1.3816   -2.2662 H   0  0  0  0  0  0  0  0  0  0  0  0
   -2.6520   -3.3929    1.6658 H   0  0  0  0  0  0  0  0  0  0  0  0
   -2.1873   -3.6469   -0.0786 H   0  0  0  0  0  0  0  0  0  0  0  0
   -3.7743   -4.1076    0.5183 H   0  0  0  0  0  0  0  0  0  0  0  0
  1  9  1  0  0  0  0
  1 25  1  0  0  0  0
  2 16  1  0  0  0  0
  2 26  1  0  0  0  0
  3 11  2  0  0  0  0
  4  7  1  0  0  0  0
  4 11  1  0  0  0  0
  4 30  1  0  0  0  0
  5  6  1  0  0  0  0
  5 23  1  0  0  0  0
  5 44  1  0  0  0  0
  6 24  2  0  0  0  0
  7  8  1  0  0  0  0
  7  9  1  0  0  0  0
  7 27  1  0  0  0  0
  8 12  2  0  0  0  0
  8 13  1  0  0  0  0
  9 28  1  0  0  0  0
  9 29  1  0  0  0  0
 10 11  1  0  0  0  0
 10 15  2  0  0  0  0
 10 17  1  0  0  0  0
 12 20  1  0  0  0  0
 12 31  1  0  0  0  0
 13 21  2  0  0  0  0
 13 32  1  0  0  0  0
 14 16  2  0  0  0  0
 14 18  1  0  0  0  0
 14 19  1  0  0  0  0
 15 16  1  0  0  0  0
 15 33  1  0  0  0  0
 17 18  2  0  0  0  0
 17 34  1  0  0  0  0
 18 35  1  0  0  0  0
 19 23  2  0  0  0  0
 19 24  1  0  0  0  0
 20 22  2  0  0  0  0
 20 36  1  0  0  0  0
 21 22  1  0  0  0  0
 21 37  1  0  0  0  0
 22 38  1  0  0  0  0
 23 39  1  0  0  0  0
 24 40  1  0  0  0  0
 25 41  1  0  0  0  0
 25 42  1  0  0  0  0
 25 43  1  0  0  0  0
 26 45  1  0  0  0  0
 26 46  1  0  0  0  0
 26 47  1  0  0  0  0
M  END
> <PUBCHEM_COMPOUND_CID>
118662953

> <PUBCHEM_CONFORMER_RMSD>
0.8

> <PUBCHEM_CONFORMER_DIVERSEORDER>
2
17
14
57
35
75
63
20
47
71
62
53
31
24
48
43
39
51
55
26
69
41
59
67
32
73
58
42
46
74
29
30
64
3
16
37
52
34
54
44
22
13
68
72
4
7
38
19
70
27
18
21
60
61
66
56
10
50
23
28
25
11
40
5
49
36
65
12
15
6
33
1
45
8
9

> <PUBCHEM_MMFF94_PARTIAL_CHARGES>
38
1 -0.56
10 0.09
11 0.54
12 -0.15
13 -0.15
14 0.05
15 -0.15
16 0.08
17 -0.15
18 -0.15
19 -0.05
2 -0.36
20 -0.15
21 -0.15
22 -0.15
23 -0.3
24 0.14
25 0.28
26 0.28
3 -0.57
30 0.37
31 0.15
32 0.15
33 0.15
34 0.15
35 0.15
36 0.15
37 0.15
38 0.15
39 0.15
4 -0.73
40 0.15
44 0.27
5 0.3
6 -0.71
7 0.44
8 -0.14
9 0.28

> <PUBCHEM_EFFECTIVE_ROTOR_COUNT>
8

> <PUBCHEM_PHARMACOPHORE_FEATURES>
9
1 1 acceptor
1 2 acceptor
1 3 acceptor
1 4 donor
1 5 donor
1 6 acceptor
5 5 6 19 23 24 rings
6 10 14 15 16 17 18 rings
6 8 12 13 20 21 22 rings

> <PUBCHEM_HEAVY_ATOM_COUNT>
26

> <PUBCHEM_ATOM_DEF_STEREO_COUNT>
1

> <PUBCHEM_ATOM_UDEF_STEREO_COUNT>
0

> <PUBCHEM_BOND_DEF_STEREO_COUNT>
0

> <PUBCHEM_BOND_UDEF_STEREO_COUNT>
0

> <PUBCHEM_ISOTOPIC_ATOM_COUNT>
0

> <PUBCHEM_COMPONENT_COUNT>
1

> <PUBCHEM_CACTVS_TAUTO_COUNT>
9

> <PUBCHEM_CONFORMER_ID>
0712A72900000002

> <PUBCHEM_MMFF94_ENERGY>
78.116

> <PUBCHEM_FEATURE_SELFOVERLAP>
45.673

> <PUBCHEM_SHAPE_FINGERPRINT>
10670039 82 17604151393959323724
11405975 8 18341901800564234938
12166972 35 17131835314150778142
12236239 1 16950004711988071787
12596602 18 12396585100889151629
13533116 47 16774072956271506442
14790565 3 18336260125452488705
14840074 17 15068631478319102167
15183329 4 18339925909233554955
15510800 12 17631465496625186278
17844677 252 18335425702788311753
17857418 61 15482664667827195959
20645477 70 17846497028496814374
21315764 119 18114750313169447686
22061861 79 18131351899408451359
221357 26 18410854322368549416
2215653 11 18272933795329529638
22393880 68 18333730238620935314
2303208 19 18335148609100398699
23559900 14 18413106178069031248
23569943 247 17488466261538807519
29717793 49 18060135414454170257
3004659 81 17917992759218505486
34797466 226 18410572924838205301
376196 1 17903349656919098712
4015057 19 17917985109961061329
44062 13 18336270123587727447
46194498 28 18341895178052108356
59682541 52 17846773005746990477
59755656 215 18337108956122098535
60123966 16 18411131455228399844
633830 44 18260819453671811130
8988823 20 15913035517993392866
960060 61 17346598599002811832
9658208 31 17531252798053558874
9709674 26 18338523070315481922

> <PUBCHEM_SHAPE_MULTIPOLES>
502.52
15.88
2.99
1.59
9.93
1.12
0.57
0.24
6.87
-3.36
-0.07
-0.97
-0.42
2.58

> <PUBCHEM_SHAPE_SELFOVERLAP>
1083.005

> <PUBCHEM_SHAPE_VOLUME>
277.6

> <PUBCHEM_COORDINATE_TYPE>
2
5
10

$$$$
90376322
  -OEChem-05102415153D

 44 46  0     1  0  0  0  0  0999 V2000
    6.4264    2.5929    1.1221 F   0  0  0  0  0  0  0  0  0  0  0  0
    1.3349   -0.2824   -2.3776 O   0  0  0  0  0  0  0  0  0  0  0  0
    1.6200   -1.2544   -0.2918 N   0  0  0  0  0  0  0  0  0  0  0  0
   -3.2043   -1.5808    1.2511 N   0  0  0  0  0  0  0  0  0  0  0  0
   -6.6756    1.0132   -0.2494 N   0  0  0  0  0  0  0  0  0  0  0  0
   -6.4662    1.2328    1.0598 N   0  0  0  0  0  0  0  0  0  0  0  0
    3.0106   -1.6101   -0.4611 C   0  0  1  0  0  0  0  0  0  0  0  0
    3.9270   -0.4830   -0.0359 C   0  0  0  0  0  0  0  0  0  0  0  0
   -0.5190   -0.2930   -0.9418 C   0  0  0  0  0  0  0  0  0  0  0  0
   -3.1711    0.3017   -0.3130 C   0  0  0  0  0  0  0  0  0  0  0  0
   -2.5323   -0.7738    0.3042 C   0  0  0  0  0  0  0  0  0  0  0  0
    3.3113   -2.9173    0.2693 C   0  0  0  0  0  0  0  0  0  0  0  0
    0.8622   -0.6052   -1.2734 C   0  0  0  0  0  0  0  0  0  0  0  0
   -1.2062   -1.0712   -0.0102 C   0  0  0  0  0  0  0  0  0  0  0  0
   -1.1577    0.7827   -1.5591 C   0  0  0  0  0  0  0  0  0  0  0  0
   -2.4839    1.0798   -1.2448 C   0  0  0  0  0  0  0  0  0  0  0  0
   -4.5379    0.6349   -0.0086 C   0  0  0  0  0  0  0  0  0  0  0  0
    3.5688    0.3433    1.0293 C   0  0  0  0  0  0  0  0  0  0  0  0
    5.1297   -0.2704   -0.7100 C   0  0  0  0  0  0  0  0  0  0  0  0
    4.4134    1.3821    1.4209 C   0  0  0  0  0  0  0  0  0  0  0  0
    5.9742    0.7686   -0.3184 C   0  0  0  0  0  0  0  0  0  0  0  0
   -5.5526    0.6525   -0.9343 C   0  0  0  0  0  0  0  0  0  0  0  0
   -5.1587    1.0002    1.2010 C   0  0  0  0  0  0  0  0  0  0  0  0
    5.6162    1.5947    0.7469 C   0  0  0  0  0  0  0  0  0  0  0  0
   -2.5293   -2.2379    2.3247 C   0  0  0  0  0  0  0  0  0  0  0  0
    3.1630   -1.7844   -1.5342 H   0  0  0  0  0  0  0  0  0  0  0  0
    1.2222   -1.4058    0.6296 H   0  0  0  0  0  0  0  0  0  0  0  0
    2.6535   -3.7196   -0.0828 H   0  0  0  0  0  0  0  0  0  0  0  0
    4.3481   -3.2313    0.1071 H   0  0  0  0  0  0  0  0  0  0  0  0
    3.1588   -2.8156    1.3501 H   0  0  0  0  0  0  0  0  0  0  0  0
   -0.7306   -1.9376    0.4386 H   0  0  0  0  0  0  0  0  0  0  0  0
   -0.6384    1.4042   -2.2839 H   0  0  0  0  0  0  0  0  0  0  0  0
   -2.9600    1.9265   -1.7341 H   0  0  0  0  0  0  0  0  0  0  0  0
    2.6465    0.1937    1.5833 H   0  0  0  0  0  0  0  0  0  0  0  0
    5.4210   -0.9079   -1.5403 H   0  0  0  0  0  0  0  0  0  0  0  0
   -4.2125   -1.5021    1.3094 H   0  0  0  0  0  0  0  0  0  0  0  0
    4.1367    2.0237    2.2523 H   0  0  0  0  0  0  0  0  0  0  0  0
    6.9106    0.9345   -0.8427 H   0  0  0  0  0  0  0  0  0  0  0  0
   -5.5838    0.4453   -1.9951 H   0  0  0  0  0  0  0  0  0  0  0  0
   -4.7164    1.1093    2.1814 H   0  0  0  0  0  0  0  0  0  0  0  0
   -1.8785   -1.5495    2.8742 H   0  0  0  0  0  0  0  0  0  0  0  0
   -1.9394   -3.0889    1.9699 H   0  0  0  0  0  0  0  0  0  0  0  0
   -3.2642   -2.6311    3.0348 H   0  0  0  0  0  0  0  0  0  0  0  0
   -7.6142    1.1278   -0.6111 H   0  0  0  0  0  0  0  0  0  0  0  0
  1 24  1  0  0  0  0
  2 13  2  0  0  0  0
  3  7  1  0  0  0  0
  3 13  1  0  0  0  0
  3 27  1  0  0  0  0
  4 11  1  0  0  0  0
  4 25  1  0  0  0  0
  4 36  1  0  0  0  0
  5  6  1  0  0  0  0
  5 22  1  0  0  0  0
  5 44  1  0  0  0  0
  6 23  2  0  0  0  0
  7  8  1  0  0  0  0
  7 12  1  0  0  0  0
  7 26  1  0  0  0  0
  8 18  2  0  0  0  0
  8 19  1  0  0  0  0
  9 13  1  0  0  0  0
  9 14  2  0  0  0  0
  9 15  1  0  0  0  0
 10 11  2  0  0  0  0
 10 16  1  0  0  0  0
 10 17  1  0  0  0  0
 11 14  1  0  0  0  0
 12 28  1  0  0  0  0
 12 29  1  0  0  0  0
 12 30  1  0  0  0  0
 14 31  1  0  0  0  0
 15 16  2  0  0  0  0
 15 32  1  0  0  0  0
 16 33  1  0  0  0  0
 17 22  2  0  0  0  0
 17 23  1  0  0  0  0
 18 20  1  0  0  0  0
 18 34  1  0  0  0  0
 19 21  2  0  0  0  0
 19 35  1  0  0  0  0
 20 24  2  0  0  0  0
 20 37  1  0  0  0  0
 21 24  1  0  0  0  0
 21 38  1  0  0  0  0
 22 39  1  0  0  0  0
 23 40  1  0  0  0  0
 25 41  1  0  0  0  0
 25 42  1  0  0  0  0
 25 43  1  0  0  0  0
M  END
> <PUBCHEM_COMPOUND_CID>
90376322

> <PUBCHEM_CONFORMER_RMSD>
0.8

> <PUBCHEM_CONFORMER_DIVERSEORDER>
1
19
14
24
23
18
13
11
21
22
17
15
25
27
8
20
3
4
16
9
6
5
10
7
26
12
2

> <PUBCHEM_MMFF94_PARTIAL_CHARGES>
36
1 -0.19
10 0.05
11 0.1
13 0.54
14 -0.15
15 -0.15
16 -0.15
17 -0.05
18 -0.15
19 -0.15
2 -0.57
20 -0.15
21 -0.15
22 -0.3
23 0.14
24 0.19
25 0.37
27 0.37
3 -0.73
31 0.15
32 0.15
33 0.15
34 0.15
35 0.15
36 0.4
37 0.15
38 0.15
39 0.15
4 -0.87
40 0.15
44 0.27
5 0.3
6 -0.71
7 0.44
8 -0.14
9 0.09

> <PUBCHEM_EFFECTIVE_ROTOR_COUNT>
6

> <PUBCHEM_PHARMACOPHORE_FEATURES>
9
1 2 acceptor
1 3 donor
1 4 cation
1 4 donor
1 5 donor
1 6 acceptor
5 5 6 17 22 23 rings
6 8 18 19 20 21 24 rings
6 9 10 11 14 15 16 rings

> <PUBCHEM_HEAVY_ATOM_COUNT>
25

> <PUBCHEM_ATOM_DEF_STEREO_COUNT>
1

> <PUBCHEM_ATOM_UDEF_STEREO_COUNT>
0

> <PUBCHEM_BOND_DEF_STEREO_COUNT>
0

> <PUBCHEM_BOND_UDEF_STEREO_COUNT>
0

> <PUBCHEM_ISOTOPIC_ATOM_COUNT>
0

> <PUBCHEM_COMPONENT_COUNT>
1

> <PUBCHEM_CACTVS_TAUTO_COUNT>
7

> <PUBCHEM_CONFORMER_ID>
0563088200000001

> <PUBCHEM_MMFF94_ENERGY>
73.948

> <PUBCHEM_FEATURE_SELFOVERLAP>
45.671

> <PUBCHEM_SHAPE_FINGERPRINT>
10 15 17168148952952608484
10165383 225 18334862715135123014
10591671 39 15410892977082969805
10670039 82 14405196053385976778
11045977 3 18408326600959908530
11112241 14 18409726283551812331
11828532 37 12678878178453479077
11991303 11 14979663425716667837
12035758 1 17894923923316055049
12236239 1 16559028276929023052
12403259 415 18189613852253907253
12633257 1 17749386009584458004
13533116 47 18265052435820771787
13540713 5 16807598294179251119
13668630 136 11241965971619063048
13955234 65 18337948966580464666
14251740 57 14779819400765972072
14341114 176 17968095300899490748
14347332 77 10231767647422943237
14528608 73 17060333028639054245
14840074 17 17346882264497499561
15183329 4 12607410987768123948
15575132 122 16702027443950566089
15961568 22 17703795794963119505
17857418 61 13695874718387012773
17980427 23 17968659440015755735
1813 80 14635159983840268198
21033648 29 18339357574060823850
21130935 74 18262524681033958011
21424621 283 18266466417350256033
21637258 2 13334742357937995033
21859007 373 16298651803801834749
22122407 14 17917720101467113760
23366157 5 16083645770765211973
23503953 91 17603595144154792727
23559900 14 18041853813482302446
2916195 48 18410009897738825021
3004659 81 12973891364553792722
3383291 50 17313679243291842387
34797466 226 17346604049822394869
3882209 13 17252592781643743107
4058900 60 16271659888504106183
474 4 16774082851675846094
5104073 3 18334294257931633890
5364581 5 17897168146116996220
5718773 13 8357998666701069320
6608658 132 15410629068158575227
7226269 152 18187085031946340813

> <PUBCHEM_SHAPE_MULTIPOLES>
481.42
16.64
2.17
1.7
1.3
1.1
0.1
-9.56
5.27
-1.72
0.94
0.12
-0.01
2.16

> <PUBCHEM_SHAPE_SELFOVERLAP>
1044.883

> <PUBCHEM_SHAPE_VOLUME>
264.5

> <PUBCHEM_COORDINATE_TYPE>
2
5
10

$$$$
118663020
  -OEChem-05102415153D

 46 48  0     1  0  0  0  0  0999 V2000
    6.5594    1.7296    2.2278 F   0  0  0  0  0  0  0  0  0  0  0  0
   -3.0992   -1.7332    0.1919 O   0  0  0  0  0  0  0  0  0  0  0  0
    1.5727    0.8601   -2.3347 O   0  0  0  0  0  0  0  0  0  0  0  0
    1.7603   -0.9441   -0.8903 N   0  0  0  0  0  0  0  0  0  0  0  0
   -6.1355    1.5515    1.0869 N   0  0  0  0  0  0  0  0  0  0  0  0
   -6.6470    0.6851    0.1959 N   0  0  0  0  0  0  0  0  0  0  0  0
    3.1514   -1.2299   -1.1586 C   0  0  1  0  0  0  0  0  0  0  0  0
    4.0657   -0.4366   -0.2500 C   0  0  0  0  0  0  0  0  0  0  0  0
   -0.3372    0.2702   -1.1088 C   0  0  0  0  0  0  0  0  0  0  0  0
    3.4043   -2.7339   -1.0763 C   0  0  0  0  0  0  0  0  0  0  0  0
   -3.0003    0.6068   -0.3488 C   0  0  0  0  0  0  0  0  0  0  0  0
    1.0516    0.0956   -1.5034 C   0  0  0  0  0  0  0  0  0  0  0  0
   -2.4036   -0.6510   -0.2609 C   0  0  0  0  0  0  0  0  0  0  0  0
   -1.0720   -0.8192   -0.6410 C   0  0  0  0  0  0  0  0  0  0  0  0
   -0.9340    1.5280   -1.1968 C   0  0  0  0  0  0  0  0  0  0  0  0
   -2.2656    1.6962   -0.8171 C   0  0  0  0  0  0  0  0  0  0  0  0
    5.2973    0.0163   -0.7231 C   0  0  0  0  0  0  0  0  0  0  0  0
    3.6766   -0.1578    1.0604 C   0  0  0  0  0  0  0  0  0  0  0  0
   -4.3711    0.8028    0.0393 C   0  0  0  0  0  0  0  0  0  0  0  0
    6.1399    0.7478    0.1140 C   0  0  0  0  0  0  0  0  0  0  0  0
    4.5193    0.5734    1.8976 C   0  0  0  0  0  0  0  0  0  0  0  0
    5.7509    1.0263    1.4243 C   0  0  0  0  0  0  0  0  0  0  0  0
   -4.7768    1.6587    1.0342 C   0  0  0  0  0  0  0  0  0  0  0  0
   -5.5645    0.2309   -0.4411 C   0  0  0  0  0  0  0  0  0  0  0  0
   -2.5932   -2.3870    1.3533 C   0  0  0  0  0  0  0  0  0  0  0  0
   -3.7493   -2.9865    2.1250 C   0  0  0  0  0  0  0  0  0  0  0  0
    3.3443   -0.9149   -2.1924 H   0  0  0  0  0  0  0  0  0  0  0  0
    1.3223   -1.4776   -0.1461 H   0  0  0  0  0  0  0  0  0  0  0  0
    3.2099   -3.1173   -0.0678 H   0  0  0  0  0  0  0  0  0  0  0  0
    2.7500   -3.2766   -1.7675 H   0  0  0  0  0  0  0  0  0  0  0  0
    4.4423   -2.9746   -1.3301 H   0  0  0  0  0  0  0  0  0  0  0  0
   -0.6438   -1.8170   -0.6020 H   0  0  0  0  0  0  0  0  0  0  0  0
   -0.3777    2.3903   -1.5550 H   0  0  0  0  0  0  0  0  0  0  0  0
   -2.7119    2.6848   -0.8969 H   0  0  0  0  0  0  0  0  0  0  0  0
    5.6128   -0.1955   -1.7412 H   0  0  0  0  0  0  0  0  0  0  0  0
    2.7307   -0.5094    1.4625 H   0  0  0  0  0  0  0  0  0  0  0  0
    7.0988    1.1004   -0.2539 H   0  0  0  0  0  0  0  0  0  0  0  0
    4.2184    0.7881    2.9188 H   0  0  0  0  0  0  0  0  0  0  0  0
   -4.2393    2.3207    1.6991 H   0  0  0  0  0  0  0  0  0  0  0  0
   -5.6947   -0.4980   -1.2288 H   0  0  0  0  0  0  0  0  0  0  0  0
   -1.9029   -3.1790    1.0434 H   0  0  0  0  0  0  0  0  0  0  0  0
   -2.0556   -1.6826    2.0004 H   0  0  0  0  0  0  0  0  0  0  0  0
   -6.7738    2.0378    1.7042 H   0  0  0  0  0  0  0  0  0  0  0  0
   -4.4558   -2.2063    2.4274 H   0  0  0  0  0  0  0  0  0  0  0  0
   -3.3950   -3.5077    3.0186 H   0  0  0  0  0  0  0  0  0  0  0  0
   -4.3049   -3.6935    1.5002 H   0  0  0  0  0  0  0  0  0  0  0  0
  1 22  1  0  0  0  0
  2 13  1  0  0  0  0
  2 25  1  0  0  0  0
  3 12  2  0  0  0  0
  4  7  1  0  0  0  0
  4 12  1  0  0  0  0
  4 28  1  0  0  0  0
  5  6  1  0  0  0  0
  5 23  1  0  0  0  0
  5 43  1  0  0  0  0
  6 24  2  0  0  0  0
  7  8  1  0  0  0  0
  7 10  1  0  0  0  0
  7 27  1  0  0  0  0
  8 17  2  0  0  0  0
  8 18  1  0  0  0  0
  9 12  1  0  0  0  0
  9 14  2  0  0  0  0
  9 15  1  0  0  0  0
 10 29  1  0  0  0  0
 10 30  1  0  0  0  0
 10 31  1  0  0  0  0
 11 13  2  0  0  0  0
 11 16  1  0  0  0  0
 11 19  1  0  0  0  0
 13 14  1  0  0  0  0
 14 32  1  0  0  0  0
 15 16  2  0  0  0  0
 15 33  1  0  0  0  0
 16 34  1  0  0  0  0
 17 20  1  0  0  0  0
 17 35  1  0  0  0  0
 18 21  2  0  0  0  0
 18 36  1  0  0  0  0
 19 23  2  0  0  0  0
 19 24  1  0  0  0  0
 20 22  2  0  0  0  0
 20 37  1  0  0  0  0
 21 22  1  0  0  0  0
 21 38  1  0  0  0  0
 23 39  1  0  0  0  0
 24 40  1  0  0  0  0
 25 26  1  0  0  0  0
 25 41  1  0  0  0  0
 25 42  1  0  0  0  0
 26 44  1  0  0  0  0
 26 45  1  0  0  0  0
 26 46  1  0  0  0  0
M  END
> <PUBCHEM_COMPOUND_CID>
118663020

> <PUBCHEM_CONFORMER_RMSD>
0.8

> <PUBCHEM_CONFORMER_DIVERSEORDER>
1
17
20
34
38
3
43
42
45
13
22
15
10
46
18
12
37
11
30
19
41
7
44
40
9
5
33
28
36
32
21
25
26
24
2
29
27
16
14
6
39
31
8
23
35
4

> <PUBCHEM_MMFF94_PARTIAL_CHARGES>
35
1 -0.19
11 0.05
12 0.54
13 0.08
14 -0.15
15 -0.15
16 -0.15
17 -0.15
18 -0.15
19 -0.05
2 -0.36
20 -0.15
21 -0.15
22 0.19
23 -0.3
24 0.14
25 0.28
28 0.37
3 -0.57
32 0.15
33 0.15
34 0.15
35 0.15
36 0.15
37 0.15
38 0.15
39 0.15
4 -0.73
40 0.15
43 0.27
5 0.3
6 -0.71
7 0.44
8 -0.14
9 0.09

> <PUBCHEM_EFFECTIVE_ROTOR_COUNT>
7

> <PUBCHEM_PHARMACOPHORE_FEATURES>
8
1 2 acceptor
1 3 acceptor
1 4 donor
1 5 donor
1 6 acceptor
5 5 6 19 23 24 rings
6 8 17 18 20 21 22 rings
6 9 11 13 14 15 16 rings

> <PUBCHEM_HEAVY_ATOM_COUNT>
26

> <PUBCHEM_ATOM_DEF_STEREO_COUNT>
1

> <PUBCHEM_ATOM_UDEF_STEREO_COUNT>
0

> <PUBCHEM_BOND_DEF_STEREO_COUNT>
0

> <PUBCHEM_BOND_UDEF_STEREO_COUNT>
0

> <PUBCHEM_ISOTOPIC_ATOM_COUNT>
0

> <PUBCHEM_COMPONENT_COUNT>
1

> <PUBCHEM_CACTVS_TAUTO_COUNT>
9

> <PUBCHEM_CONFORMER_ID>
0712A76C00000001

> <PUBCHEM_MMFF94_ENERGY>
68.5175

> <PUBCHEM_FEATURE_SELFOVERLAP>
40.597

> <PUBCHEM_SHAPE_FINGERPRINT>
10165383 225 18343023290473178948
11991303 11 14189280582763812885
12035758 1 18261689116568018977
12616971 3 16153708743209862542
12633257 1 18186794807820502736
12788726 201 17386017113235118740
13140716 1 18115319985110027949
13533116 47 18200036109962638902
13540713 5 17533800435636656927
13668630 136 13117999977114106144
13911987 19 13901904484871877261
14251751 18 12973608828350972984
14341114 328 17821444673564946052
14347332 77 8862673369218601973
15183329 4 11743843581919507204
15537594 2 16515689939958015530
17857418 61 15430043149291744257
17980427 23 18335979878028719332
1813 80 16515696502303852822
20567600 247 14057004935747603033
21033648 29 18272087232064899002
21130935 74 18271814463277326983
21424621 283 18128265497988264857
21623969 137 14996283600310150064
21859007 373 17241032207630897013
22122407 14 17203334390135119704
23503953 91 18114472218252260583
23559900 14 18336561416959702838
25147074 1 17387147544268849727
29717793 49 11025805292490517276
312425 54 18260823796289929730
3383291 50 18114753732797144955
3882209 13 17403168695617658187
392239 28 17386552679104619560
4058900 60 15123241996261695693
474 4 15482673468215036516
5104073 3 17896330283859553409
5281201 14 8430310243154941878
5364581 5 18193553587116458360
5718773 13 12396562007219396344
6608658 132 13830143779688702379
7226269 152 18408886209787820557

> <PUBCHEM_SHAPE_MULTIPOLES>
501.11
16.55
2.38
1.92
3.72
2.06
-0.54
-5.1
-8.54
-2.19
-0.67
2.12
-0.04
2.27

> <PUBCHEM_SHAPE_SELFOVERLAP>
1082.612

> <PUBCHEM_SHAPE_VOLUME>
276.8

> <PUBCHEM_COORDINATE_TYPE>
2
5
10

$$$$
118662937
  -OEChem-05102415153D

 54 56  0     1  0  0  0  0  0999 V2000
    5.7788   -1.5460   -0.0783 S   0  0  0  0  0  0  0  0  0  0  0  0
    5.7096   -1.3322    1.3539 O   0  0  0  0  0  0  0  0  0  0  0  0
    7.0105   -1.3064   -0.8055 O   0  0  0  0  0  0  0  0  0  0  0  0
   -0.0321    1.4254   -1.9899 O   0  0  0  0  0  0  0  0  0  0  0  0
   -4.9240    1.5813   -0.6794 O   0  0  0  0  0  0  0  0  0  0  0  0
    4.5184   -0.6933   -0.8523 N   0  0  0  0  0  0  0  0  0  0  0  0
    0.8473   -0.0658   -0.4475 N   0  0  0  0  0  0  0  0  0  0  0  0
   -7.0905   -1.9999    1.4511 N   0  0  0  0  0  0  0  0  0  0  0  0
   -7.7295   -1.2393    0.5460 N   0  0  0  0  0  0  0  0  0  0  0  0
    2.2399    0.2323   -0.7022 C   0  0  2  0  0  0  0  0  0  0  0  0
    3.1202   -1.0074   -0.5074 C   0  0  0  0  0  0  0  0  0  0  0  0
    2.7038    1.3883    0.1594 C   0  0  0  0  0  0  0  0  0  0  0  0
    5.2867   -3.2230   -0.4057 C   0  0  0  0  0  0  0  0  0  0  0  0
   -0.1821    0.5670   -1.1244 C   0  0  0  0  0  0  0  0  0  0  0  0
    3.6415    2.2947   -0.3356 C   0  0  0  0  0  0  0  0  0  0  0  0
    2.1932    1.5466    1.4477 C   0  0  0  0  0  0  0  0  0  0  0  0
   -1.5572    0.1681   -0.7284 C   0  0  0  0  0  0  0  0  0  0  0  0
    4.0687    3.3593    0.4580 C   0  0  0  0  0  0  0  0  0  0  0  0
    2.6204    2.6113    2.2413 C   0  0  0  0  0  0  0  0  0  0  0  0
    6.2624   -4.2134    0.1894 C   0  0  0  0  0  0  0  0  0  0  0  0
   -2.6160    1.0624   -0.8861 C   0  0  0  0  0  0  0  0  0  0  0  0
   -4.1399   -0.5832    0.0123 C   0  0  0  0  0  0  0  0  0  0  0  0
   -1.7897   -1.1020   -0.2003 C   0  0  0  0  0  0  0  0  0  0  0  0
   -3.9074    0.6869   -0.5158 C   0  0  0  0  0  0  0  0  0  0  0  0
    3.5584    3.5175    1.7465 C   0  0  0  0  0  0  0  0  0  0  0  0
   -3.0810   -1.4775    0.1703 C   0  0  0  0  0  0  0  0  0  0  0  0
   -5.4636   -0.9914    0.3990 C   0  0  0  0  0  0  0  0  0  0  0  0
   -5.7319   -1.8877    1.4046 C   0  0  0  0  0  0  0  0  0  0  0  0
   -6.7306   -0.6256   -0.0938 C   0  0  0  0  0  0  0  0  0  0  0  0
   -4.5842    2.8529   -1.2270 C   0  0  0  0  0  0  0  0  0  0  0  0
    2.3117    0.5455   -1.7530 H   0  0  0  0  0  0  0  0  0  0  0  0
    3.0536   -1.3487    0.5325 H   0  0  0  0  0  0  0  0  0  0  0  0
    2.7673   -1.8190   -1.1537 H   0  0  0  0  0  0  0  0  0  0  0  0
    4.6560   -0.4856   -1.8503 H   0  0  0  0  0  0  0  0  0  0  0  0
    0.6446   -0.6939    0.3233 H   0  0  0  0  0  0  0  0  0  0  0  0
    4.2992   -3.3865    0.0333 H   0  0  0  0  0  0  0  0  0  0  0  0
    5.2296   -3.3489   -1.4909 H   0  0  0  0  0  0  0  0  0  0  0  0
    4.0450    2.1874   -1.3389 H   0  0  0  0  0  0  0  0  0  0  0  0
    1.4749    0.8488    1.8685 H   0  0  0  0  0  0  0  0  0  0  0  0
    4.7983    4.0654    0.0725 H   0  0  0  0  0  0  0  0  0  0  0  0
    2.2260    2.7327    3.2459 H   0  0  0  0  0  0  0  0  0  0  0  0
    7.2667   -4.0773   -0.2246 H   0  0  0  0  0  0  0  0  0  0  0  0
    5.9429   -5.2381   -0.0240 H   0  0  0  0  0  0  0  0  0  0  0  0
    6.3315   -4.0980    1.2759 H   0  0  0  0  0  0  0  0  0  0  0  0
   -2.3763    2.0378   -1.2948 H   0  0  0  0  0  0  0  0  0  0  0  0
   -1.0003   -1.8401   -0.0937 H   0  0  0  0  0  0  0  0  0  0  0  0
    3.8917    4.3459    2.3647 H   0  0  0  0  0  0  0  0  0  0  0  0
   -3.2272   -2.4826    0.5580 H   0  0  0  0  0  0  0  0  0  0  0  0
   -5.1070   -2.4446    2.0892 H   0  0  0  0  0  0  0  0  0  0  0  0
   -6.9845    0.0495   -0.8986 H   0  0  0  0  0  0  0  0  0  0  0  0
   -7.6458   -2.5730    2.0740 H   0  0  0  0  0  0  0  0  0  0  0  0
   -5.5112    3.4328   -1.2886 H   0  0  0  0  0  0  0  0  0  0  0  0
   -4.2003    2.7651   -2.2492 H   0  0  0  0  0  0  0  0  0  0  0  0
   -3.9082    3.4102   -0.5694 H   0  0  0  0  0  0  0  0  0  0  0  0
  1  2  2  0  0  0  0
  1  3  2  0  0  0  0
  1  6  1  0  0  0  0
  1 13  1  0  0  0  0
  4 14  2  0  0  0  0
  5 24  1  0  0  0  0
  5 30  1  0  0  0  0
  6 11  1  0  0  0  0
  6 34  1  0  0  0  0
  7 10  1  0  0  0  0
  7 14  1  0  0  0  0
  7 35  1  0  0  0  0
  8  9  1  0  0  0  0
  8 28  1  0  0  0  0
  8 51  1  0  0  0  0
  9 29  2  0  0  0  0
 10 11  1  0  0  0  0
 10 12  1  0  0  0  0
 10 31  1  0  0  0  0
 11 32  1  0  0  0  0
 11 33  1  0  0  0  0
 12 15  2  0  0  0  0
 12 16  1  0  0  0  0
 13 20  1  0  0  0  0
 13 36  1  0  0  0  0
 13 37  1  0  0  0  0
 14 17  1  0  0  0  0
 15 18  1  0  0  0  0
 15 38  1  0  0  0  0
 16 19  2  0  0  0  0
 16 39  1  0  0  0  0
 17 21  2  0  0  0  0
 17 23  1  0  0  0  0
 18 25  2  0  0  0  0
 18 40  1  0  0  0  0
 19 25  1  0  0  0  0
 19 41  1  0  0  0  0
 20 42  1  0  0  0  0
 20 43  1  0  0  0  0
 20 44  1  0  0  0  0
 21 24  1  0  0  0  0
 21 45  1  0  0  0  0
 22 24  2  0  0  0  0
 22 26  1  0  0  0  0
 22 27  1  0  0  0  0
 23 26  2  0  0  0  0
 23 46  1  0  0  0  0
 25 47  1  0  0  0  0
 26 48  1  0  0  0  0
 27 28  2  0  0  0  0
 27 29  1  0  0  0  0
 28 49  1  0  0  0  0
 29 50  1  0  0  0  0
 30 52  1  0  0  0  0
 30 53  1  0  0  0  0
 30 54  1  0  0  0  0
M  END
> <PUBCHEM_COMPOUND_CID>
118662937

> <PUBCHEM_CONFORMER_RMSD>
1

> <PUBCHEM_CONFORMER_DIVERSEORDER>
5
63
86
65
56
58
78
83
82
68
17
89
50
79
23
45
55
67
62
41
34
91
8
88
11
30
28
52
70
51
35
59
77
76
7
12
69
42
48
26
27
66
74
64
53
16
14
87
37
49
9
4
10
38
90
85
54
60
22
80
57
19
13
84
20
1
73
72
43
75
40
3
29
61
15
46
47
18
32
44
21
24
2
6
36
81
33
71
25
31
39

> <PUBCHEM_MMFF94_PARTIAL_CHARGES>
42
1 1.33
10 0.44
11 0.36
12 -0.14
13 0.11
14 0.54
15 -0.15
16 -0.15
17 0.09
18 -0.15
19 -0.15
2 -0.65
21 -0.15
22 0.05
23 -0.15
24 0.08
25 -0.15
26 -0.15
27 -0.05
28 -0.3
29 0.14
3 -0.65
30 0.28
34 0.42
35 0.37
38 0.15
39 0.15
4 -0.57
40 0.15
41 0.15
45 0.15
46 0.15
47 0.15
48 0.15
49 0.15
5 -0.36
50 0.15
51 0.27
6 -0.91
7 -0.73
8 0.3
9 -0.71

> <PUBCHEM_EFFECTIVE_ROTOR_COUNT>
10

> <PUBCHEM_PHARMACOPHORE_FEATURES>
11
1 2 acceptor
1 3 acceptor
1 4 acceptor
1 5 acceptor
1 6 donor
1 7 donor
1 8 donor
1 9 acceptor
5 8 9 27 28 29 rings
6 12 15 16 18 19 25 rings
6 17 21 22 23 24 26 rings

> <PUBCHEM_HEAVY_ATOM_COUNT>
30

> <PUBCHEM_ATOM_DEF_STEREO_COUNT>
1

> <PUBCHEM_ATOM_UDEF_STEREO_COUNT>
0

> <PUBCHEM_BOND_DEF_STEREO_COUNT>
0

> <PUBCHEM_BOND_UDEF_STEREO_COUNT>
0

> <PUBCHEM_ISOTOPIC_ATOM_COUNT>
0

> <PUBCHEM_COMPONENT_COUNT>
1

> <PUBCHEM_CACTVS_TAUTO_COUNT>
9

> <PUBCHEM_CONFORMER_ID>
0712A71900000005

> <PUBCHEM_MMFF94_ENERGY>
72.3357

> <PUBCHEM_FEATURE_SELFOVERLAP>
55.841

> <PUBCHEM_SHAPE_FINGERPRINT>
10165383 225 18196096766808366108
10319926 262 18334847299669458601
11545043 162 18334856095788841469
12342043 65 18334011666357747918
12522641 24 18271528683851335795
12616971 3 17132113563364657909
13533116 47 18341052998798690387
13540713 5 17058632183293771084
13673619 4 18335987493422394526
13685833 64 18334580139618369854
13782708 43 18409449185094320759
13955234 65 18270958068178187816
14950920 106 18131358526938517723
15131766 46 17343211129028823465
15475509 35 18335419071754841714
15475509 84 18060425681413981552
15927050 60 17912918672677179702
21033648 29 18341884230291409177
21049683 271 18409174316531718332
21267235 1 18113626690011639359
21304303 94 14779263099559049152
21344244 78 17274824627968386690
21792934 111 18412260645554678105
21987483 16 17985261035747923271
23559900 14 18334570222428185380
249057 25 16558456570202319797
3004659 81 16515968168139709295
3178227 256 18272373070654691710
3552219 110 17489588923593528018
5104073 3 18411136939880401297
58260988 587 18194126433370679728
5912855 24 17842829199188021135
6697151 62 18125697042603496660
8863177 126 18337112357773081226
9962374 69 18270951436005222134

> <PUBCHEM_SHAPE_MULTIPOLES>
577.83
19.88
4.2
1.5
13.79
0.24
-0.43
-15.22
-3.94
-7.97
-1.28
-0.02
0.87
3.83

> <PUBCHEM_SHAPE_SELFOVERLAP>
1220.291

> <PUBCHEM_SHAPE_VOLUME>
326.4

> <PUBCHEM_COORDINATE_TYPE>
2
5
10

$$$$
118662924
  -OEChem-05102415153D

 46 48  0     1  0  0  0  0  0999 V2000
    4.9099    1.3509   -1.2992 F   0  0  0  0  0  0  0  0  0  0  0  0
   -2.3631    3.0213    0.7878 O   0  0  0  0  0  0  0  0  0  0  0  0
    1.5328    1.0564   -1.6313 O   0  0  0  0  0  0  0  0  0  0  0  0
    1.9930   -1.0660   -0.8187 N   0  0  0  0  0  0  0  0  0  0  0  0
   -6.1295   -0.9743    1.5051 N   0  0  0  0  0  0  0  0  0  0  0  0
   -6.5985   -0.9082    0.2474 N   0  0  0  0  0  0  0  0  0  0  0  0
   -2.3885    0.8039   -0.1149 C   0  0  0  0  0  0  0  0  0  0  0  0
    3.4111   -1.0484   -1.0969 C   0  0  1  0  0  0  0  0  0  0  0  0
   -2.9481   -0.4721   -0.0480 C   0  0  0  0  0  0  0  0  0  0  0  0
   -3.1952    2.0281    0.1806 C   0  0  2  0  0  0  0  0  0  0  0  0
   -0.2646   -0.1606   -0.7444 C   0  0  0  0  0  0  0  0  0  0  0  0
   -1.0467    0.9597   -0.4630 C   0  0  0  0  0  0  0  0  0  0  0  0
    4.1952   -0.4614    0.0570 C   0  0  0  0  0  0  0  0  0  0  0  0
   -2.1658   -1.5924   -0.3291 C   0  0  0  0  0  0  0  0  0  0  0  0
    1.1344    0.0010   -1.1076 C   0  0  0  0  0  0  0  0  0  0  0  0
   -0.8242   -1.4366   -0.6775 C   0  0  0  0  0  0  0  0  0  0  0  0
   -4.3287   -0.6601    0.3095 C   0  0  0  0  0  0  0  0  0  0  0  0
    3.8891   -2.4478   -1.4786 C   0  0  0  0  0  0  0  0  0  0  0  0
   -3.8440    2.6202   -1.0723 C   0  0  0  0  0  0  0  0  0  0  0  0
    4.9098    0.7242   -0.1144 C   0  0  0  0  0  0  0  0  0  0  0  0
    4.2015   -1.1069    1.2936 C   0  0  0  0  0  0  0  0  0  0  0  0
   -4.7762   -0.8314    1.5969 C   0  0  0  0  0  0  0  0  0  0  0  0
   -5.4938   -0.7162   -0.4784 C   0  0  0  0  0  0  0  0  0  0  0  0
    5.6307    1.2644    0.9506 C   0  0  0  0  0  0  0  0  0  0  0  0
    4.9223   -0.5666    2.3588 C   0  0  0  0  0  0  0  0  0  0  0  0
    5.6371    0.6189    2.1872 C   0  0  0  0  0  0  0  0  0  0  0  0
    3.5546   -0.4158   -1.9817 H   0  0  0  0  0  0  0  0  0  0  0  0
   -3.9711    1.8207    0.9234 H   0  0  0  0  0  0  0  0  0  0  0  0
   -0.6043    1.9508   -0.5279 H   0  0  0  0  0  0  0  0  0  0  0  0
    1.6448   -1.8583   -0.2885 H   0  0  0  0  0  0  0  0  0  0  0  0
   -2.5872   -2.5943   -0.2883 H   0  0  0  0  0  0  0  0  0  0  0  0
   -0.2593   -2.3325   -0.9182 H   0  0  0  0  0  0  0  0  0  0  0  0
    3.3546   -2.8074   -2.3653 H   0  0  0  0  0  0  0  0  0  0  0  0
    4.9609   -2.4496   -1.7057 H   0  0  0  0  0  0  0  0  0  0  0  0
    3.7133   -3.1771   -0.6800 H   0  0  0  0  0  0  0  0  0  0  0  0
   -3.0831    2.9468   -1.7906 H   0  0  0  0  0  0  0  0  0  0  0  0
   -4.4310    3.5082   -0.8140 H   0  0  0  0  0  0  0  0  0  0  0  0
   -4.5010    1.9033   -1.5727 H   0  0  0  0  0  0  0  0  0  0  0  0
    3.6461   -2.0278    1.4489 H   0  0  0  0  0  0  0  0  0  0  0  0
   -4.2699   -0.8641    2.5517 H   0  0  0  0  0  0  0  0  0  0  0  0
   -5.5877   -0.6260   -1.5515 H   0  0  0  0  0  0  0  0  0  0  0  0
   -2.9194    3.7968    0.9744 H   0  0  0  0  0  0  0  0  0  0  0  0
    6.1869    2.1874    0.8167 H   0  0  0  0  0  0  0  0  0  0  0  0
    4.9260   -1.0682    3.3221 H   0  0  0  0  0  0  0  0  0  0  0  0
    6.1981    1.0397    3.0165 H   0  0  0  0  0  0  0  0  0  0  0  0
   -6.7916   -1.1190    2.2571 H   0  0  0  0  0  0  0  0  0  0  0  0
  1 20  1  0  0  0  0
  2 10  1  0  0  0  0
  2 42  1  0  0  0  0
  3 15  2  0  0  0  0
  4  8  1  0  0  0  0
  4 15  1  0  0  0  0
  4 30  1  0  0  0  0
  5  6  1  0  0  0  0
  5 22  1  0  0  0  0
  5 46  1  0  0  0  0
  6 23  2  0  0  0  0
  7  9  2  0  0  0  0
  7 10  1  0  0  0  0
  7 12  1  0  0  0  0
  8 13  1  0  0  0  0
  8 18  1  0  0  0  0
  8 27  1  0  0  0  0
  9 14  1  0  0  0  0
  9 17  1  0  0  0  0
 10 19  1  0  0  0  0
 10 28  1  0  0  0  0
 11 12  2  0  0  0  0
 11 15  1  0  0  0  0
 11 16  1  0  0  0  0
 12 29  1  0  0  0  0
 13 20  1  0  0  0  0
 13 21  2  0  0  0  0
 14 16  2  0  0  0  0
 14 31  1  0  0  0  0
 16 32  1  0  0  0  0
 17 22  2  0  0  0  0
 17 23  1  0  0  0  0
 18 33  1  0  0  0  0
 18 34  1  0  0  0  0
 18 35  1  0  0  0  0
 19 36  1  0  0  0  0
 19 37  1  0  0  0  0
 19 38  1  0  0  0  0
 20 24  2  0  0  0  0
 21 25  1  0  0  0  0
 21 39  1  0  0  0  0
 22 40  1  0  0  0  0
 23 41  1  0  0  0  0
 24 26  1  0  0  0  0
 24 43  1  0  0  0  0
 25 26  2  0  0  0  0
 25 44  1  0  0  0  0
 26 45  1  0  0  0  0
M  END
> <PUBCHEM_COMPOUND_CID>
118662924

> <PUBCHEM_CONFORMER_RMSD>
0.8

> <PUBCHEM_CONFORMER_DIVERSEORDER>
2
35
73
84
59
79
111
99
95
5
7
108
105
11
96
103
4
63
94
113
15
25
17
38
48
28
34
56
104
102
22
37
88
50
68
62
32
58
45
65
46
87
57
110
109
82
61
100
40
21
75
76
107
97
31
18
44
20
54
92
80
90
93
30
12
106
33
77
69
86
39
71
9
66
64
10
91
74
53
51
14
72
89
16
19
36
29
55
3
85
112
70
8
98
13
52
47
67
42
83
101
6
24
43
60
78
49
27
23
41
81
1
26

> <PUBCHEM_MMFF94_PARTIAL_CHARGES>
36
1 -0.19
10 0.42
11 0.09
12 -0.15
13 -0.14
14 -0.15
15 0.54
16 -0.15
17 -0.05
2 -0.68
20 0.19
21 -0.15
22 -0.3
23 0.14
24 -0.15
25 -0.15
26 -0.15
29 0.15
3 -0.57
30 0.37
31 0.15
32 0.15
39 0.15
4 -0.73
40 0.15
41 0.15
42 0.4
43 0.15
44 0.15
45 0.15
46 0.27
5 0.3
6 -0.71
7 -0.14
8 0.44
9 0.05

> <PUBCHEM_EFFECTIVE_ROTOR_COUNT>
6

> <PUBCHEM_PHARMACOPHORE_FEATURES>
9
1 2 acceptor
1 2 donor
1 3 acceptor
1 4 donor
1 5 donor
1 6 acceptor
5 5 6 17 22 23 rings
6 13 20 21 24 25 26 rings
6 7 9 11 12 14 16 rings

> <PUBCHEM_HEAVY_ATOM_COUNT>
26

> <PUBCHEM_ATOM_DEF_STEREO_COUNT>
1

> <PUBCHEM_ATOM_UDEF_STEREO_COUNT>
1

> <PUBCHEM_BOND_DEF_STEREO_COUNT>
0

> <PUBCHEM_BOND_UDEF_STEREO_COUNT>
0

> <PUBCHEM_ISOTOPIC_ATOM_COUNT>
0

> <PUBCHEM_COMPONENT_COUNT>
1

> <PUBCHEM_CACTVS_TAUTO_COUNT>
9

> <PUBCHEM_CONFORMER_ID>
0712A70C00000002

> <PUBCHEM_MMFF94_ENERGY>
65.0885

> <PUBCHEM_FEATURE_SELFOVERLAP>
45.672

> <PUBCHEM_SHAPE_FINGERPRINT>
10 15 18411412956106373616
10319926 262 18266732494615983146
11135609 201 17917137429794067160
11545043 162 18198067980186092950
11595378 159 18334286548786655136
11796584 16 10665232553417053628
12236239 1 17385720296750666443
12403259 415 17988648449749856294
12507560 40 18272652307752624030
12596602 18 18040148509475324400
12643181 29 8358262544737540032
12892183 10 18339358565692029238
13533116 47 16805038536667408848
13914758 101 16588296160650008405
14251740 57 17458340789662033370
14341114 328 18114173169118596504
146900 427 16917348134527728214
15131766 46 15769480019515832505
15183329 4 7997977881165841746
15188451 53 17749382667862291347
15475509 8 11819265638620847335
15510800 12 13768202745341635664
17844677 252 18200040542547768646
17857418 61 16805323305520266099
1813 80 17095529478502867102
19377110 9 18260829319364365432
20645477 70 13839984426359028922
21033648 29 18130500847269928520
21065198 48 17895194381316529516
21792934 111 18342738464778489561
23559900 14 18199754631392308382
23569914 2 15981697673826810297
29717793 49 13190336881132840070
341906 21 18342173337308680932
3886686 26 17032728453863741578
393628 194 14546165655139256530
4058900 60 11095349403643726919
5104073 3 18268995293170766858
542803 24 15195567900763812415
7808743 9 17772174569993113856
8988823 20 16732983163296417300
960060 61 13695875822262387462

> <PUBCHEM_SHAPE_MULTIPOLES>
501.11
16.14
2.28
1.77
0.39
1.06
-0.7
-0.58
-7.19
0.96
0.51
-1.95
-0.11
1.53

> <PUBCHEM_SHAPE_SELFOVERLAP>
1087.953

> <PUBCHEM_SHAPE_VOLUME>
276

> <PUBCHEM_COORDINATE_TYPE>
2
5
10

$$$$
118663066
  -OEChem-05102415153D

 44 46  0     1  0  0  0  0  0999 V2000
    5.3991    1.7470   -0.0839 O   0  0  0  0  0  0  0  0  0  0  0  0
   -2.0981   -1.7785    0.3045 O   0  0  0  0  0  0  0  0  0  0  0  0
    1.0807    3.1359   -0.5201 O   0  0  0  0  0  0  0  0  0  0  0  0
    1.8222    1.3560    0.7680 N   0  0  0  0  0  0  0  0  0  0  0  0
   -6.4063   -0.6569   -0.6935 N   0  0  0  0  0  0  0  0  0  0  0  0
   -6.3455   -1.1927    0.5376 N   0  0  0  0  0  0  0  0  0  0  0  0
    4.0643    1.2631   -0.2326 C   0  0  2  0  0  0  0  0  0  0  0  0
    3.1904    1.8029    0.8998 C   0  0  0  0  0  0  0  0  0  0  0  0
    4.1006   -0.2476   -0.2404 C   0  0  0  0  0  0  0  0  0  0  0  0
   -0.4952    1.4917    0.0379 C   0  0  0  0  0  0  0  0  0  0  0  0
   -3.0633    0.4022    0.0038 C   0  0  0  0  0  0  0  0  0  0  0  0
    0.8431    2.0603    0.0575 C   0  0  0  0  0  0  0  0  0  0  0  0
   -1.9549   -0.4294    0.1638 C   0  0  0  0  0  0  0  0  0  0  0  0
   -0.6709    0.1154    0.1809 C   0  0  0  0  0  0  0  0  0  0  0  0
   -1.6037    2.3235   -0.1222 C   0  0  0  0  0  0  0  0  0  0  0  0
   -2.8876    1.7787   -0.1395 C   0  0  0  0  0  0  0  0  0  0  0  0
   -4.3959   -0.1383   -0.0150 C   0  0  0  0  0  0  0  0  0  0  0  0
    5.0782   -0.9253    0.4882 C   0  0  0  0  0  0  0  0  0  0  0  0
    3.1567   -0.9642   -0.9760 C   0  0  0  0  0  0  0  0  0  0  0  0
    5.1118   -2.3199    0.4812 C   0  0  0  0  0  0  0  0  0  0  0  0
    3.1903   -2.3587   -0.9831 C   0  0  0  0  0  0  0  0  0  0  0  0
   -5.2642   -0.0143   -1.0719 C   0  0  0  0  0  0  0  0  0  0  0  0
   -5.1151   -0.8726    0.9470 C   0  0  0  0  0  0  0  0  0  0  0  0
    4.1678   -3.0365   -0.2543 C   0  0  0  0  0  0  0  0  0  0  0  0
   -0.9045   -2.5421    0.4622 C   0  0  0  0  0  0  0  0  0  0  0  0
    3.6979    1.6300   -1.1994 H   0  0  0  0  0  0  0  0  0  0  0  0
    3.2205    2.8984    0.9077 H   0  0  0  0  0  0  0  0  0  0  0  0
    3.5578    1.4675    1.8768 H   0  0  0  0  0  0  0  0  0  0  0  0
    1.5746    0.5212    1.2878 H   0  0  0  0  0  0  0  0  0  0  0  0
    0.2112   -0.5059    0.2599 H   0  0  0  0  0  0  0  0  0  0  0  0
   -1.4887    3.3989   -0.2294 H   0  0  0  0  0  0  0  0  0  0  0  0
   -3.7379    2.4461   -0.2598 H   0  0  0  0  0  0  0  0  0  0  0  0
    5.8167   -0.3931    1.0813 H   0  0  0  0  0  0  0  0  0  0  0  0
    2.3924   -0.4496   -1.5522 H   0  0  0  0  0  0  0  0  0  0  0  0
    5.9179    1.4270   -0.8422 H   0  0  0  0  0  0  0  0  0  0  0  0
    5.8707   -2.8480    1.0511 H   0  0  0  0  0  0  0  0  0  0  0  0
    2.4552   -2.9166   -1.5558 H   0  0  0  0  0  0  0  0  0  0  0  0
   -5.1809    0.4595   -2.0404 H   0  0  0  0  0  0  0  0  0  0  0  0
   -4.7978   -1.1892    1.9308 H   0  0  0  0  0  0  0  0  0  0  0  0
    4.1932   -4.1223   -0.2590 H   0  0  0  0  0  0  0  0  0  0  0  0
   -7.2616   -0.7680   -1.2234 H   0  0  0  0  0  0  0  0  0  0  0  0
   -0.2712   -2.4931   -0.4302 H   0  0  0  0  0  0  0  0  0  0  0  0
   -0.3663   -2.2733    1.3778 H   0  0  0  0  0  0  0  0  0  0  0  0
   -1.2074   -3.5887    0.5734 H   0  0  0  0  0  0  0  0  0  0  0  0
  1  7  1  0  0  0  0
  1 35  1  0  0  0  0
  2 13  1  0  0  0  0
  2 25  1  0  0  0  0
  3 12  2  0  0  0  0
  4  8  1  0  0  0  0
  4 12  1  0  0  0  0
  4 29  1  0  0  0  0
  5  6  1  0  0  0  0
  5 22  1  0  0  0  0
  5 41  1  0  0  0  0
  6 23  2  0  0  0  0
  7  8  1  0  0  0  0
  7  9  1  0  0  0  0
  7 26  1  0  0  0  0
  8 27  1  0  0  0  0
  8 28  1  0  0  0  0
  9 18  2  0  0  0  0
  9 19  1  0  0  0  0
 10 12  1  0  0  0  0
 10 14  2  0  0  0  0
 10 15  1  0  0  0  0
 11 13  2  0  0  0  0
 11 16  1  0  0  0  0
 11 17  1  0  0  0  0
 13 14  1  0  0  0  0
 14 30  1  0  0  0  0
 15 16  2  0  0  0  0
 15 31  1  0  0  0  0
 16 32  1  0  0  0  0
 17 22  2  0  0  0  0
 17 23  1  0  0  0  0
 18 20  1  0  0  0  0
 18 33  1  0  0  0  0
 19 21  2  0  0  0  0
 19 34  1  0  0  0  0
 20 24  2  0  0  0  0
 20 36  1  0  0  0  0
 21 24  1  0  0  0  0
 21 37  1  0  0  0  0
 22 38  1  0  0  0  0
 23 39  1  0  0  0  0
 24 40  1  0  0  0  0
 25 42  1  0  0  0  0
 25 43  1  0  0  0  0
 25 44  1  0  0  0  0
M  END
> <PUBCHEM_COMPOUND_CID>
118663066

> <PUBCHEM_CONFORMER_RMSD>
0.8

> <PUBCHEM_CONFORMER_DIVERSEORDER>
7
42
76
96
100
82
91
56
20
27
28
95
101
26
94
66
51
11
18
64
1
87
88
86
105
99
77
83
39
13
67
36
21
5
69
73
71
29
58
37
33
104
50
45
81
8
48
89
85
65
70
31
52
17
23
16
78
30
74
102
19
32
75
44
12
55
103
57
90
98
38
61
68
54
47
60
84
24
46
62
93
3
92
35
63
80
59
6
9
14
22
40
34
15
97
79
43
72
49
10
41
53
4
2
25

> <PUBCHEM_MMFF94_PARTIAL_CHARGES>
38
1 -0.68
10 0.09
11 0.05
12 0.54
13 0.08
14 -0.15
15 -0.15
16 -0.15
17 -0.05
18 -0.15
19 -0.15
2 -0.36
20 -0.15
21 -0.15
22 -0.3
23 0.14
24 -0.15
25 0.28
29 0.37
3 -0.57
30 0.15
31 0.15
32 0.15
33 0.15
34 0.15
35 0.4
36 0.15
37 0.15
38 0.15
39 0.15
4 -0.73
40 0.15
41 0.27
5 0.3
6 -0.71
7 0.42
8 0.3
9 -0.14

> <PUBCHEM_EFFECTIVE_ROTOR_COUNT>
7

> <PUBCHEM_PHARMACOPHORE_FEATURES>
10
1 1 acceptor
1 1 donor
1 2 acceptor
1 3 acceptor
1 4 donor
1 5 donor
1 6 acceptor
5 5 6 17 22 23 rings
6 10 11 13 14 15 16 rings
6 9 18 19 20 21 24 rings

> <PUBCHEM_HEAVY_ATOM_COUNT>
25

> <PUBCHEM_ATOM_DEF_STEREO_COUNT>
1

> <PUBCHEM_ATOM_UDEF_STEREO_COUNT>
0

> <PUBCHEM_BOND_DEF_STEREO_COUNT>
0

> <PUBCHEM_BOND_UDEF_STEREO_COUNT>
0

> <PUBCHEM_ISOTOPIC_ATOM_COUNT>
0

> <PUBCHEM_COMPONENT_COUNT>
1

> <PUBCHEM_CACTVS_TAUTO_COUNT>
9

> <PUBCHEM_CONFORMER_ID>
0712A79A00000007

> <PUBCHEM_MMFF94_ENERGY>
73.0572

> <PUBCHEM_FEATURE_SELFOVERLAP>
50.748

> <PUBCHEM_SHAPE_FINGERPRINT>
10616163 171 18338802342163522598
10693767 8 18199447983723422559
10838868 158 17102573186494391235
11963148 33 18264764535831838954
12107183 9 17912939278902059897
12166972 35 17749396927370323558
12422481 6 17702678640004498869
12645989 146 18199752432253924302
13073987 5 18343021077410435112
13150687 139 18193860334830745908
13402501 40 18410575089317041186
13533116 47 18202282523892239464
13551218 46 18341895186462272159
1361 2 18272932730236201975
13862211 1 18411134740983537975
13955234 65 18199746023893329496
14251740 57 17846225401917284262
14347332 77 18342172237770659845
14617045 38 18341058505416190796
14725015 67 18265605494923349218
14784336 7 17916579990156741763
14840074 17 17917712426413023957
14866123 147 17837213675392713481
14931854 50 18261682450578958718
15196674 1 18410856516769549696
15352361 1 18339080389503201422
15537594 2 18060136578622260732
17349148 13 17917437544453906353
17492 89 18195809557949743886
17857418 61 18201996629678926735
1813 80 17675927607378069492
19591789 44 18337391530704953859
1979834 28 17775566416861414446
19930381 70 18267305322335055438
20403669 9 18412266108019680174
20645477 70 18410009923455712392
21033650 10 16516247297637489300
21267235 1 18340774762828753030
21279426 13 18335698283267735869
21285901 2 18260263036353234268
21682296 61 18412267203600519331
22224240 67 17987225807160159136
23559900 14 18267862968014461312
23569914 152 17474917984797490575
24771750 20 17319311091440345805
3004659 81 18187082832901661298
314194 84 18343299296980821949
3421961 26 18413668024195187064
345986 75 17561085773998683128
34797466 226 16732993062943047749
46194498 28 17676205818543651908
463206 1 18129373959378430086
5104073 3 18272652298930932032
59755656 215 18411139181774045820
6138700 20 18335981961193631371
9709674 26 18339647746230296486

> <PUBCHEM_SHAPE_MULTIPOLES>
481.94
14.33
3.31
0.89
7.82
0.05
0.04
-6.79
0.29
-3.3
0.03
0.09
-0.14
0.71

> <PUBCHEM_SHAPE_SELFOVERLAP>
1045.335

> <PUBCHEM_SHAPE_VOLUME>
263.8

> <PUBCHEM_COORDINATE_TYPE>
2
5
10

$$$$
118662948
  -OEChem-05102415153D

 40 42  0     1  0  0  0  0  0999 V2000
    6.2477    2.8484    0.0921 F   0  0  0  0  0  0  0  0  0  0  0  0
    1.1694   -1.2358   -1.9005 O   0  0  0  0  0  0  0  0  0  0  0  0
   -3.3259    1.0946   -2.0825 O   0  0  0  0  0  0  0  0  0  0  0  0
    1.5632   -1.3796    0.3801 N   0  0  0  0  0  0  0  0  0  0  0  0
   -6.4090    1.1380    1.2802 N   0  0  0  0  0  0  0  0  0  0  0  0
   -6.9209    0.5298    0.1966 N   0  0  0  0  0  0  0  0  0  0  0  0
    2.9613   -1.7343    0.2869 C   0  0  1  0  0  0  0  0  0  0  0  0
    3.8429   -0.5052    0.2353 C   0  0  0  0  0  0  0  0  0  0  0  0
    3.3403   -2.6802    1.4247 C   0  0  0  0  0  0  0  0  0  0  0  0
   -0.6343   -0.7770   -0.4742 C   0  0  0  0  0  0  0  0  0  0  0  0
    0.7472   -1.1503   -0.7337 C   0  0  0  0  0  0  0  0  0  0  0  0
   -3.2853   -0.0645    0.0230 C   0  0  0  0  0  0  0  0  0  0  0  0
    3.4854    0.6403    0.9465 C   0  0  0  0  0  0  0  0  0  0  0  0
    5.0130   -0.5179   -0.5242 C   0  0  0  0  0  0  0  0  0  0  0  0
   -1.3369   -0.0116   -1.4048 C   0  0  0  0  0  0  0  0  0  0  0  0
   -2.6625    0.3447   -1.1564 C   0  0  0  0  0  0  0  0  0  0  0  0
   -1.2570   -1.1861    0.7051 C   0  0  0  0  0  0  0  0  0  0  0  0
   -2.5825   -0.8297    0.9537 C   0  0  0  0  0  0  0  0  0  0  0  0
   -4.6516    0.2902    0.2983 C   0  0  0  0  0  0  0  0  0  0  0  0
    4.2982    1.7730    0.8987 C   0  0  0  0  0  0  0  0  0  0  0  0
    5.8255    0.6150   -0.5723 C   0  0  0  0  0  0  0  0  0  0  0  0
    5.4682    1.7604    0.1392 C   0  0  0  0  0  0  0  0  0  0  0  0
   -5.0539    1.0240    1.3875 C   0  0  0  0  0  0  0  0  0  0  0  0
   -5.8427    0.0138   -0.3993 C   0  0  0  0  0  0  0  0  0  0  0  0
    3.0857   -2.2807   -0.6571 H   0  0  0  0  0  0  0  0  0  0  0  0
    1.2005   -1.2020    1.3112 H   0  0  0  0  0  0  0  0  0  0  0  0
    4.3835   -3.0031    1.3393 H   0  0  0  0  0  0  0  0  0  0  0  0
    2.7056   -3.5732    1.4157 H   0  0  0  0  0  0  0  0  0  0  0  0
    3.2191   -2.1987    2.4021 H   0  0  0  0  0  0  0  0  0  0  0  0
    2.5888    0.6761    1.5587 H   0  0  0  0  0  0  0  0  0  0  0  0
    5.3036   -1.4045   -1.0814 H   0  0  0  0  0  0  0  0  0  0  0  0
   -0.8547    0.3140   -2.3236 H   0  0  0  0  0  0  0  0  0  0  0  0
   -0.7571   -1.8093    1.4408 H   0  0  0  0  0  0  0  0  0  0  0  0
   -3.0523   -1.1688    1.8742 H   0  0  0  0  0  0  0  0  0  0  0  0
    4.0221    2.6641    1.4548 H   0  0  0  0  0  0  0  0  0  0  0  0
    6.7366    0.6055   -1.1633 H   0  0  0  0  0  0  0  0  0  0  0  0
   -4.5164    1.4695    2.2132 H   0  0  0  0  0  0  0  0  0  0  0  0
   -5.9744   -0.5425   -1.3168 H   0  0  0  0  0  0  0  0  0  0  0  0
   -7.0442    1.6150    1.9077 H   0  0  0  0  0  0  0  0  0  0  0  0
   -2.7314    1.2790   -2.8298 H   0  0  0  0  0  0  0  0  0  0  0  0
  1 22  1  0  0  0  0
  2 11  2  0  0  0  0
  3 16  1  0  0  0  0
  3 40  1  0  0  0  0
  4  7  1  0  0  0  0
  4 11  1  0  0  0  0
  4 26  1  0  0  0  0
  5  6  1  0  0  0  0
  5 23  1  0  0  0  0
  5 39  1  0  0  0  0
  6 24  2  0  0  0  0
  7  8  1  0  0  0  0
  7  9  1  0  0  0  0
  7 25  1  0  0  0  0
  8 13  2  0  0  0  0
  8 14  1  0  0  0  0
  9 27  1  0  0  0  0
  9 28  1  0  0  0  0
  9 29  1  0  0  0  0
 10 11  1  0  0  0  0
 10 15  2  0  0  0  0
 10 17  1  0  0  0  0
 12 16  2  0  0  0  0
 12 18  1  0  0  0  0
 12 19  1  0  0  0  0
 13 20  1  0  0  0  0
 13 30  1  0  0  0  0
 14 21  2  0  0  0  0
 14 31  1  0  0  0  0
 15 16  1  0  0  0  0
 15 32  1  0  0  0  0
 17 18  2  0  0  0  0
 17 33  1  0  0  0  0
 18 34  1  0  0  0  0
 19 23  2  0  0  0  0
 19 24  1  0  0  0  0
 20 22  2  0  0  0  0
 20 35  1  0  0  0  0
 21 22  1  0  0  0  0
 21 36  1  0  0  0  0
 23 37  1  0  0  0  0
 24 38  1  0  0  0  0
M  END
> <PUBCHEM_COMPOUND_CID>
118662948

> <PUBCHEM_CONFORMER_RMSD>
0.8

> <PUBCHEM_CONFORMER_DIVERSEORDER>
1
13
3
16
8
6
9
15
4
14
12
2
7
5
11
10

> <PUBCHEM_MMFF94_PARTIAL_CHARGES>
35
1 -0.19
10 0.09
11 0.54
12 0.05
13 -0.15
14 -0.15
15 -0.15
16 0.08
17 -0.15
18 -0.15
19 -0.05
2 -0.57
20 -0.15
21 -0.15
22 0.19
23 -0.3
24 0.14
26 0.37
3 -0.53
30 0.15
31 0.15
32 0.15
33 0.15
34 0.15
35 0.15
36 0.15
37 0.15
38 0.15
39 0.27
4 -0.73
40 0.45
5 0.3
6 -0.71
7 0.44
8 -0.14

> <PUBCHEM_EFFECTIVE_ROTOR_COUNT>
5

> <PUBCHEM_PHARMACOPHORE_FEATURES>
8
1 2 acceptor
1 3 donor
1 4 donor
1 5 donor
1 6 acceptor
5 5 6 19 23 24 rings
6 10 12 15 16 17 18 rings
6 8 13 14 20 21 22 rings

> <PUBCHEM_HEAVY_ATOM_COUNT>
24

> <PUBCHEM_ATOM_DEF_STEREO_COUNT>
1

> <PUBCHEM_ATOM_UDEF_STEREO_COUNT>
0

> <PUBCHEM_BOND_DEF_STEREO_COUNT>
0

> <PUBCHEM_BOND_UDEF_STEREO_COUNT>
0

> <PUBCHEM_ISOTOPIC_ATOM_COUNT>
0

> <PUBCHEM_COMPONENT_COUNT>
1

> <PUBCHEM_CACTVS_TAUTO_COUNT>
24

> <PUBCHEM_CONFORMER_ID>
0712A72400000001

> <PUBCHEM_MMFF94_ENERGY>
58.1223

> <PUBCHEM_FEATURE_SELFOVERLAP>
40.597

> <PUBCHEM_SHAPE_FINGERPRINT>
10 15 17023186058876520964
10165383 225 18040442097077513038
10319926 262 16443889571780100154
10554248 39 17630034967651223357
10591671 39 16558750131285183167
10670039 82 16128388038193469392
11796584 16 13110955436200510564
11991303 11 15985096445005363269
12236239 1 17561081401806254119
12403259 415 17968654913241466543
12507560 40 17749103336021832102
12596602 18 18408608029071878763
12616971 3 17987785337496471942
12633257 1 17313382396014767584
12730499 353 18186522081908569138
12892183 10 16950835904029045246
13533116 47 18115025191007768066
13685833 64 8646768898186042941
13955234 65 18187640242379680034
14251732 16 18411139173484837059
14251740 57 13551460424852406160
14251751 18 11891337577516545873
14251764 75 18268992149888059172
14341114 176 18113339682784391166
14347332 77 9223239533278150235
14528608 73 17775564251654116955
146900 427 18410290298435641674
14840074 17 18202563990527377013
15183329 4 13326861019270830871
15188451 53 12324231780887733172
15475509 35 16081918236625396394
15475509 8 12103572983154483683
15575132 122 17917997135812000513
15961568 22 18130514058816814505
17492 89 12108599924515236232
17857418 61 12324246065948836281
1813 80 13551478020753642966
19784866 240 11386362634291353587
1979834 28 17530969077268037070
20567600 234 17895196635894661709
20567600 247 10881404265872990945
21033648 29 17676477320463434157
21130935 74 17967818185721203395
21307412 95 11959737104637674461
21315764 119 15339128926500429460
21637258 2 12324245001034239443
22061861 79 11095879376126190265
22122407 14 18201168701438961937
2215653 11 12031786967839301676
23559900 14 17241322444246042358
3004659 81 11386369210208258498
3472631 163 17988927820604269508
34797466 226 17917438601174149423
3545911 37 18040718048077375854
4058900 60 16701755839188457655
474 4 17775569714821304270
5104073 3 18186519912338408930
542803 24 18131068212618593455
5718773 13 9871210314708751292
57724786 102 18341896277478975844
59682541 52 12895079474491293277
6608658 132 16630260129482427569
960060 61 9150880702665198235

> <PUBCHEM_SHAPE_MULTIPOLES>
459.95
17.05
2.06
1.45
6.92
0.06
0.34
9.83
-3.26
-3.89
-0.61
0.86
-0.02
-0.24

> <PUBCHEM_SHAPE_SELFOVERLAP>
1006.424

> <PUBCHEM_SHAPE_VOLUME>
250.6

> <PUBCHEM_COORDINATE_TYPE>
2
5
10

$$$$
90385133
  -OEChem-05102415153D

 43 45  0     1  0  0  0  0  0999 V2000
    6.4384    2.8120    0.2380 F   0  0  0  0  0  0  0  0  0  0  0  0
    1.3903   -1.1019   -2.1360 O   0  0  0  0  0  0  0  0  0  0  0  0
   -3.3212   -0.0965    2.6808 O   0  0  0  0  0  0  0  0  0  0  0  0
    1.6607   -1.3195    0.1566 N   0  0  0  0  0  0  0  0  0  0  0  0
   -6.6851    0.5245   -0.3438 N   0  0  0  0  0  0  0  0  0  0  0  0
   -6.4027    1.6522    0.3305 N   0  0  0  0  0  0  0  0  0  0  0  0
    3.0543   -1.7018    0.1256 C   0  0  1  0  0  0  0  0  0  0  0  0
    3.9622   -0.4912    0.1564 C   0  0  0  0  0  0  0  0  0  0  0  0
   -2.4975   -0.6922    0.5306 C   0  0  0  0  0  0  0  0  0  0  0  0
   -3.1337    0.1147   -0.4128 C   0  0  0  0  0  0  0  0  0  0  0  0
   -0.4762   -0.6451   -0.7923 C   0  0  0  0  0  0  0  0  0  0  0  0
   -1.1687   -1.0722    0.3408 C   0  0  0  0  0  0  0  0  0  0  0  0
    3.3538   -2.6879    1.2527 C   0  0  0  0  0  0  0  0  0  0  0  0
    0.9092   -1.0407   -0.9908 C   0  0  0  0  0  0  0  0  0  0  0  0
   -2.4412    0.5415   -1.5461 C   0  0  0  0  0  0  0  0  0  0  0  0
   -1.1124    0.1618   -1.7356 C   0  0  0  0  0  0  0  0  0  0  0  0
   -4.5033    0.5197   -0.2414 C   0  0  0  0  0  0  0  0  0  0  0  0
   -3.2075   -1.1701    1.7569 C   0  0  0  0  0  0  0  0  0  0  0  0
    3.5911    0.6410    0.8818 C   0  0  0  0  0  0  0  0  0  0  0  0
    5.1700   -0.5075   -0.5415 C   0  0  0  0  0  0  0  0  0  0  0  0
   -5.5823   -0.1900   -0.7092 C   0  0  0  0  0  0  0  0  0  0  0  0
    4.4279    1.7567    0.9100 C   0  0  0  0  0  0  0  0  0  0  0  0
    6.0066    0.6082   -0.5136 C   0  0  0  0  0  0  0  0  0  0  0  0
   -5.0684    1.6438    0.3900 C   0  0  0  0  0  0  0  0  0  0  0  0
    5.6357    1.7402    0.2122 C   0  0  0  0  0  0  0  0  0  0  0  0
    3.2170   -2.2234   -0.8266 H   0  0  0  0  0  0  0  0  0  0  0  0
    1.2546   -1.1586    1.0727 H   0  0  0  0  0  0  0  0  0  0  0  0
   -0.7046   -1.7254    1.0747 H   0  0  0  0  0  0  0  0  0  0  0  0
    2.7025   -3.5662    1.1843 H   0  0  0  0  0  0  0  0  0  0  0  0
    4.3933   -3.0308    1.2121 H   0  0  0  0  0  0  0  0  0  0  0  0
    3.1912   -2.2321    2.2364 H   0  0  0  0  0  0  0  0  0  0  0  0
   -2.9206    1.1718   -2.2916 H   0  0  0  0  0  0  0  0  0  0  0  0
   -0.5892    0.5090   -2.6228 H   0  0  0  0  0  0  0  0  0  0  0  0
   -4.2033   -1.5609    1.5231 H   0  0  0  0  0  0  0  0  0  0  0  0
   -2.6570   -1.9817    2.2460 H   0  0  0  0  0  0  0  0  0  0  0  0
    2.6644    0.6787    1.4474 H   0  0  0  0  0  0  0  0  0  0  0  0
    5.4713   -1.3838   -1.1092 H   0  0  0  0  0  0  0  0  0  0  0  0
   -5.6688   -1.1184   -1.2567 H   0  0  0  0  0  0  0  0  0  0  0  0
    4.1411    2.6372    1.4773 H   0  0  0  0  0  0  0  0  0  0  0  0
    6.9470    0.5959   -1.0565 H   0  0  0  0  0  0  0  0  0  0  0  0
   -4.5664    2.4589    0.8922 H   0  0  0  0  0  0  0  0  0  0  0  0
   -7.6567    0.3019   -0.5209 H   0  0  0  0  0  0  0  0  0  0  0  0
   -3.7918   -0.4389    3.4598 H   0  0  0  0  0  0  0  0  0  0  0  0
  1 25  1  0  0  0  0
  2 14  2  0  0  0  0
  3 18  1  0  0  0  0
  3 43  1  0  0  0  0
  4  7  1  0  0  0  0
  4 14  1  0  0  0  0
  4 27  1  0  0  0  0
  5  6  1  0  0  0  0
  5 21  1  0  0  0  0
  5 42  1  0  0  0  0
  6 24  2  0  0  0  0
  7  8  1  0  0  0  0
  7 13  1  0  0  0  0
  7 26  1  0  0  0  0
  8 19  2  0  0  0  0
  8 20  1  0  0  0  0
  9 10  2  0  0  0  0
  9 12  1  0  0  0  0
  9 18  1  0  0  0  0
 10 15  1  0  0  0  0
 10 17  1  0  0  0  0
 11 12  2  0  0  0  0
 11 14  1  0  0  0  0
 11 16  1  0  0  0  0
 12 28  1  0  0  0  0
 13 29  1  0  0  0  0
 13 30  1  0  0  0  0
 13 31  1  0  0  0  0
 15 16  2  0  0  0  0
 15 32  1  0  0  0  0
 16 33  1  0  0  0  0
 17 21  2  0  0  0  0
 17 24  1  0  0  0  0
 18 34  1  0  0  0  0
 18 35  1  0  0  0  0
 19 22  1  0  0  0  0
 19 36  1  0  0  0  0
 20 23  2  0  0  0  0
 20 37  1  0  0  0  0
 21 38  1  0  0  0  0
 22 25  2  0  0  0  0
 22 39  1  0  0  0  0
 23 25  1  0  0  0  0
 23 40  1  0  0  0  0
 24 41  1  0  0  0  0
M  END
> <PUBCHEM_COMPOUND_CID>
90385133

> <PUBCHEM_CONFORMER_RMSD>
0.8

> <PUBCHEM_CONFORMER_DIVERSEORDER>
1
15
5
20
13
24
9
26
19
25
27
18
21
6
12
7
22
10
8
16
2
23
4
11
17
14
3

> <PUBCHEM_MMFF94_PARTIAL_CHARGES>
36
1 -0.19
10 0.05
11 0.09
12 -0.15
14 0.54
15 -0.15
16 -0.15
17 -0.05
18 0.42
19 -0.15
2 -0.57
20 -0.15
21 -0.3
22 -0.15
23 -0.15
24 0.14
25 0.19
27 0.37
28 0.15
3 -0.68
32 0.15
33 0.15
36 0.15
37 0.15
38 0.15
39 0.15
4 -0.73
40 0.15
41 0.15
42 0.27
43 0.4
5 0.3
6 -0.71
7 0.44
8 -0.14
9 -0.14

> <PUBCHEM_EFFECTIVE_ROTOR_COUNT>
6

> <PUBCHEM_PHARMACOPHORE_FEATURES>
9
1 2 acceptor
1 3 acceptor
1 3 donor
1 4 donor
1 5 donor
1 6 acceptor
5 5 6 17 21 24 rings
6 8 19 20 22 23 25 rings
6 9 10 11 12 15 16 rings

> <PUBCHEM_HEAVY_ATOM_COUNT>
25

> <PUBCHEM_ATOM_DEF_STEREO_COUNT>
1

> <PUBCHEM_ATOM_UDEF_STEREO_COUNT>
0

> <PUBCHEM_BOND_DEF_STEREO_COUNT>
0

> <PUBCHEM_BOND_UDEF_STEREO_COUNT>
0

> <PUBCHEM_ISOTOPIC_ATOM_COUNT>
0

> <PUBCHEM_COMPONENT_COUNT>
1

> <PUBCHEM_CACTVS_TAUTO_COUNT>
7

> <PUBCHEM_CONFORMER_ID>
05632AED00000001

> <PUBCHEM_MMFF94_ENERGY>
61.7816

> <PUBCHEM_FEATURE_SELFOVERLAP>
45.672

> <PUBCHEM_SHAPE_FINGERPRINT>
10 15 16008754614665745228
10165383 225 18040720264971597462
10591671 39 16702301269700798295
10670039 82 16128666223420422912
11991303 11 16343411899745249069
12035758 1 17168155520622261553
12236239 1 17704068495093972543
12403259 415 17895749582779749175
12596602 18 18201438107525622470
12633257 1 17095519643012168148
13533116 47 18042683905684451067
13668630 136 8718830898855499116
13685833 64 8286203851013436860
13955234 65 18115297870566800226
14251740 57 13262947457074769112
14251751 18 8502653705435567777
14341114 176 17385439895774281852
14347332 77 11527957716162918495
14528608 73 17917987291282058532
14840074 17 17917997191256113513
15183329 4 15410622492917136788
15419008 42 11675967387589289139
15475509 8 12175628395322553779
15575132 122 17489874808562920809
15961568 22 18272937102518261669
17857418 61 12179850489486182893
17980427 23 17458910451958202975
19784866 240 10881676884489519366
20691028 202 18048594017946678364
21033648 29 18187085096301889010
21130935 74 18041000580059458907
21424621 283 18116435848174594177
21623969 137 11891332041177445184
21637258 2 12035738634700438105
21641784 216 15698003990304844507
21859007 373 15141224513435038527
22061861 79 10231755578280011424
22122407 14 18272095980391223968
23366157 5 14564532987964219631
23559900 14 17458916929064465518
3383291 50 16371021732436174075
34797466 226 17917998256850660231
4058900 60 17346046567426080119
4073 2 18260550064580357146
474 4 17632579331593873286
5104073 3 17242160258651455528
5281201 14 11527944560726018570
5718773 13 9655035350793811732
6608658 132 16701751479237464145
7226269 152 17240199911777760605

> <PUBCHEM_SHAPE_MULTIPOLES>
480.53
16.85
2.09
1.61
0.98
0.11
-0.17
10.02
-2.34
-2.97
-0.71
0.9
-0.3
0.66

> <PUBCHEM_SHAPE_SELFOVERLAP>
1046.121

> <PUBCHEM_SHAPE_VOLUME>
263.4

> <PUBCHEM_COORDINATE_TYPE>
2
5
10

$$$$
90385100
  -OEChem-05102415153D

 48 50  0     1  0  0  0  0  0999 V2000
    2.9791    3.7175   -0.8933 O   0  0  0  0  0  0  0  0  0  0  0  0
    1.0680   -0.7825    2.2270 O   0  0  0  0  0  0  0  0  0  0  0  0
    2.5156    3.0288    1.2587 O   0  0  0  0  0  0  0  0  0  0  0  0
    1.5364    0.2229    0.1908 N   0  0  0  0  0  0  0  0  0  0  0  0
   -7.0407   -0.3365    0.1153 N   0  0  0  0  0  0  0  0  0  0  0  0
   -6.8778   -0.5220   -1.2058 N   0  0  0  0  0  0  0  0  0  0  0  0
    2.9722    0.2831    0.3609 C   0  0  2  0  0  0  0  0  0  0  0  0
    3.5667    1.5166   -0.3373 C   0  0  0  0  0  0  0  0  0  0  0  0
    3.6174   -0.9994   -0.1237 C   0  0  0  0  0  0  0  0  0  0  0  0
   -0.7486   -0.3254    0.8167 C   0  0  0  0  0  0  0  0  0  0  0  0
    0.6980   -0.3130    1.1540 C   0  0  0  0  0  0  0  0  0  0  0  0
   -2.6268    0.6105   -0.3809 C   0  0  0  0  0  0  0  0  0  0  0  0
   -3.4657   -0.3501    0.1841 C   0  0  0  0  0  0  0  0  0  0  0  0
   -1.2683    0.6228   -0.0646 C   0  0  0  0  0  0  0  0  0  0  0  0
    3.0808   -1.6803   -1.2165 C   0  0  0  0  0  0  0  0  0  0  0  0
    4.7479   -1.4990    0.5229 C   0  0  0  0  0  0  0  0  0  0  0  0
   -1.5877   -1.2860    1.3818 C   0  0  0  0  0  0  0  0  0  0  0  0
   -2.9463   -1.2982    1.0656 C   0  0  0  0  0  0  0  0  0  0  0  0
    2.9513    2.8182    0.1353 C   0  0  0  0  0  0  0  0  0  0  0  0
   -4.8703   -0.3839   -0.1249 C   0  0  0  0  0  0  0  0  0  0  0  0
    3.6748   -2.8610   -1.6628 C   0  0  0  0  0  0  0  0  0  0  0  0
    5.3418   -2.6796    0.0766 C   0  0  0  0  0  0  0  0  0  0  0  0
   -3.1475    1.6433   -1.3290 C   0  0  0  0  0  0  0  0  0  0  0  0
    4.8054   -3.3605   -1.0164 C   0  0  0  0  0  0  0  0  0  0  0  0
   -5.8692   -0.2472    0.8080 C   0  0  0  0  0  0  0  0  0  0  0  0
   -5.5499   -0.5501   -1.3465 C   0  0  0  0  0  0  0  0  0  0  0  0
    2.4433    5.0109   -0.5958 C   0  0  0  0  0  0  0  0  0  0  0  0
    3.1586    0.3727    1.4396 H   0  0  0  0  0  0  0  0  0  0  0  0
    4.6482    1.5778   -0.1691 H   0  0  0  0  0  0  0  0  0  0  0  0
    3.4030    1.4305   -1.4199 H   0  0  0  0  0  0  0  0  0  0  0  0
    1.1686    0.4988   -0.7137 H   0  0  0  0  0  0  0  0  0  0  0  0
   -0.6409    1.3998   -0.4927 H   0  0  0  0  0  0  0  0  0  0  0  0
    2.2118   -1.3090   -1.7522 H   0  0  0  0  0  0  0  0  0  0  0  0
    5.1765   -0.9768    1.3741 H   0  0  0  0  0  0  0  0  0  0  0  0
   -1.2008   -2.0365    2.0661 H   0  0  0  0  0  0  0  0  0  0  0  0
   -3.5809   -2.0595    1.5136 H   0  0  0  0  0  0  0  0  0  0  0  0
   -4.0423    2.1338   -0.9316 H   0  0  0  0  0  0  0  0  0  0  0  0
   -2.4127    2.4384   -1.4999 H   0  0  0  0  0  0  0  0  0  0  0  0
   -3.3724    1.1943   -2.3014 H   0  0  0  0  0  0  0  0  0  0  0  0
    3.2596   -3.3893   -2.5161 H   0  0  0  0  0  0  0  0  0  0  0  0
    6.2224   -3.0685    0.5795 H   0  0  0  0  0  0  0  0  0  0  0  0
    5.2685   -4.2791   -1.3645 H   0  0  0  0  0  0  0  0  0  0  0  0
   -5.8597   -0.0962    1.8787 H   0  0  0  0  0  0  0  0  0  0  0  0
   -5.1384   -0.6954   -2.3355 H   0  0  0  0  0  0  0  0  0  0  0  0
   -7.9837   -0.2793    0.4791 H   0  0  0  0  0  0  0  0  0  0  0  0
    2.5253    5.6279   -1.4946 H   0  0  0  0  0  0  0  0  0  0  0  0
    3.0167    5.4827    0.2078 H   0  0  0  0  0  0  0  0  0  0  0  0
    1.3873    4.9289   -0.3212 H   0  0  0  0  0  0  0  0  0  0  0  0
  1 19  1  0  0  0  0
  1 27  1  0  0  0  0
  2 11  2  0  0  0  0
  3 19  2  0  0  0  0
  4  7  1  0  0  0  0
  4 11  1  0  0  0  0
  4 31  1  0  0  0  0
  5  6  1  0  0  0  0
  5 25  1  0  0  0  0
  5 45  1  0  0  0  0
  6 26  2  0  0  0  0
  7  8  1  0  0  0  0
  7  9  1  0  0  0  0
  7 28  1  0  0  0  0
  8 19  1  0  0  0  0
  8 29  1  0  0  0  0
  8 30  1  0  0  0  0
  9 15  2  0  0  0  0
  9 16  1  0  0  0  0
 10 11  1  0  0  0  0
 10 14  2  0  0  0  0
 10 17  1  0  0  0  0
 12 13  2  0  0  0  0
 12 14  1  0  0  0  0
 12 23  1  0  0  0  0
 13 18  1  0  0  0  0
 13 20  1  0  0  0  0
 14 32  1  0  0  0  0
 15 21  1  0  0  0  0
 15 33  1  0  0  0  0
 16 22  2  0  0  0  0
 16 34  1  0  0  0  0
 17 18  2  0  0  0  0
 17 35  1  0  0  0  0
 18 36  1  0  0  0  0
 20 25  2  0  0  0  0
 20 26  1  0  0  0  0
 21 24  2  0  0  0  0
 21 40  1  0  0  0  0
 22 24  1  0  0  0  0
 22 41  1  0  0  0  0
 23 37  1  0  0  0  0
 23 38  1  0  0  0  0
 23 39  1  0  0  0  0
 24 42  1  0  0  0  0
 25 43  1  0  0  0  0
 26 44  1  0  0  0  0
 27 46  1  0  0  0  0
 27 47  1  0  0  0  0
 27 48  1  0  0  0  0
M  END
> <PUBCHEM_COMPOUND_CID>
90385100

> <PUBCHEM_CONFORMER_RMSD>
1

> <PUBCHEM_CONFORMER_DIVERSEORDER>
1
19
43
46
26
9
29
24
22
36
42
4
41
45
39
15
30
32
18
21
40
27
44
37
16
47
35
31
5
11
8
28
20
33
34
38
25
23
7
17
14
12
6
13
3
10
2

> <PUBCHEM_MMFF94_PARTIAL_CHARGES>
39
1 -0.43
10 0.09
11 0.54
12 -0.14
13 0.05
14 -0.15
15 -0.15
16 -0.15
17 -0.15
18 -0.15
19 0.66
2 -0.57
20 -0.05
21 -0.15
22 -0.15
23 0.14
24 -0.15
25 -0.3
26 0.14
27 0.28
3 -0.57
31 0.37
32 0.15
33 0.15
34 0.15
35 0.15
36 0.15
4 -0.73
40 0.15
41 0.15
42 0.15
43 0.15
44 0.15
45 0.27
5 0.3
6 -0.71
7 0.44
8 0.06
9 -0.14

> <PUBCHEM_EFFECTIVE_ROTOR_COUNT>
8

> <PUBCHEM_PHARMACOPHORE_FEATURES>
8
1 2 acceptor
1 3 acceptor
1 4 donor
1 5 donor
1 6 acceptor
5 5 6 20 25 26 rings
6 10 12 13 14 17 18 rings
6 9 15 16 21 22 24 rings

> <PUBCHEM_HEAVY_ATOM_COUNT>
27

> <PUBCHEM_ATOM_DEF_STEREO_COUNT>
1

> <PUBCHEM_ATOM_UDEF_STEREO_COUNT>
0

> <PUBCHEM_BOND_DEF_STEREO_COUNT>
0

> <PUBCHEM_BOND_UDEF_STEREO_COUNT>
0

> <PUBCHEM_ISOTOPIC_ATOM_COUNT>
0

> <PUBCHEM_COMPONENT_COUNT>
1

> <PUBCHEM_CACTVS_TAUTO_COUNT>
7

> <PUBCHEM_CONFORMER_ID>
05632ACC00000001

> <PUBCHEM_MMFF94_ENERGY>
66.7499

> <PUBCHEM_FEATURE_SELFOVERLAP>
40.597

> <PUBCHEM_SHAPE_FINGERPRINT>
10670039 82 16515968043026787671
11386260 185 18408876352595322717
11828532 37 17822301227150815667
12107698 1 18411698755745860125
12166972 35 17988925527023317298
13533116 47 18413390955770304985
13540713 4 17823713047151181027
14347332 77 18271524187584942347
14863182 85 16128379238338424862
15021287 119 18269008504954425737
15183329 4 17968380030929181619
17844677 252 18410576159091003973
17857418 61 17132109126806184015
1813 80 17916318147185572510
19311894 1 17905327329796204668
21365058 113 18337682914508943964
221357 26 18334012761532281452
2303208 19 17894925044228855099
23081809 10 17775288292343835755
23522609 53 17630350699698913969
23559900 14 18333732450438960730
23569914 152 17327988025527684071
239999 70 18334008423641576056
249057 25 17703799107104974553
3004659 81 17561370573259085326
34797466 226 18335135445326192863
376196 1 17755580795687601144
4015057 19 18341330072051075403
44317340 157 18339361989408477715
44802255 64 16961019848237761876
46194498 28 18408885139812982284
5219985 13 17613443659269361332
5281201 14 18410575058904026180
59682541 52 18343295990314862253
60123966 16 18334568075070845645
6086070 43 18116417160207386629
6695519 79 17407697553951809538
9658208 31 16950853599558173347

> <PUBCHEM_SHAPE_MULTIPOLES>
523.1
14.96
4.25
1.46
20.09
5.97
-0.1
-8.21
3.92
-9.66
1.42
0.18
-0.45
1.24

> <PUBCHEM_SHAPE_SELFOVERLAP>
1127.986

> <PUBCHEM_SHAPE_VOLUME>
288.6

> <PUBCHEM_COORDINATE_TYPE>
2
5
10

$$$$
90385101
  -OEChem-05102415153D

 45 47  0     1  0  0  0  0  0999 V2000
    0.9920    1.0466    2.0279 O   0  0  0  0  0  0  0  0  0  0  0  0
    3.7470    3.8964   -1.3187 O   0  0  0  0  0  0  0  0  0  0  0  0
    2.6048    3.2969    0.5486 O   0  0  0  0  0  0  0  0  0  0  0  0
    1.6201    0.3446   -0.0908 N   0  0  0  0  0  0  0  0  0  0  0  0
   -6.5512   -1.1447   -1.3632 N   0  0  0  0  0  0  0  0  0  0  0  0
   -7.0453   -0.1353   -0.6261 N   0  0  0  0  0  0  0  0  0  0  0  0
    3.0464    0.5000    0.0981 C   0  0  1  0  0  0  0  0  0  0  0  0
    3.7385   -0.8429   -0.0308 C   0  0  0  0  0  0  0  0  0  0  0  0
    3.5958    1.5703   -0.8597 C   0  0  0  0  0  0  0  0  0  0  0  0
   -0.7212    0.3985    0.5639 C   0  0  0  0  0  0  0  0  0  0  0  0
    0.7046    0.6362    0.9064 C   0  0  0  0  0  0  0  0  0  0  0  0
   -3.3986   -0.0477   -0.0810 C   0  0  0  0  0  0  0  0  0  0  0  0
   -2.9807   -0.1152    1.2482 C   0  0  0  0  0  0  0  0  0  0  0  0
   -1.6421    0.1079    1.5706 C   0  0  0  0  0  0  0  0  0  0  0  0
    3.8429   -1.6830    1.0779 C   0  0  0  0  0  0  0  0  0  0  0  0
    4.2707   -1.2384   -1.2580 C   0  0  0  0  0  0  0  0  0  0  0  0
   -1.1391    0.4660   -0.7653 C   0  0  0  0  0  0  0  0  0  0  0  0
   -2.4777    0.2426   -1.0877 C   0  0  0  0  0  0  0  0  0  0  0  0
   -4.7730   -0.2746   -0.4401 C   0  0  0  0  0  0  0  0  0  0  0  0
    3.2560    2.9849   -0.4384 C   0  0  0  0  0  0  0  0  0  0  0  0
   -3.9385   -0.4247    2.3542 C   0  0  0  0  0  0  0  0  0  0  0  0
    4.4796   -2.9185    0.9595 C   0  0  0  0  0  0  0  0  0  0  0  0
    4.9073   -2.4739   -1.3766 C   0  0  0  0  0  0  0  0  0  0  0  0
    5.0116   -3.3140   -0.2678 C   0  0  0  0  0  0  0  0  0  0  0  0
   -5.1952   -1.2708   -1.2862 C   0  0  0  0  0  0  0  0  0  0  0  0
   -5.9544    0.3926   -0.0647 C   0  0  0  0  0  0  0  0  0  0  0  0
    3.2326    0.8529    1.1212 H   0  0  0  0  0  0  0  0  0  0  0  0
    3.2029    1.4269   -1.8737 H   0  0  0  0  0  0  0  0  0  0  0  0
    4.6917    1.5204   -0.8899 H   0  0  0  0  0  0  0  0  0  0  0  0
    1.3169   -0.0596   -0.9706 H   0  0  0  0  0  0  0  0  0  0  0  0
   -1.3177    0.0519    2.6071 H   0  0  0  0  0  0  0  0  0  0  0  0
    3.4307   -1.3875    2.0391 H   0  0  0  0  0  0  0  0  0  0  0  0
    4.1928   -0.6191   -2.1460 H   0  0  0  0  0  0  0  0  0  0  0  0
   -0.4630    0.7221   -1.5755 H   0  0  0  0  0  0  0  0  0  0  0  0
   -2.7840    0.3114   -2.1291 H   0  0  0  0  0  0  0  0  0  0  0  0
   -3.4117   -0.6517    3.2882 H   0  0  0  0  0  0  0  0  0  0  0  0
   -4.5441   -1.3070    2.1217 H   0  0  0  0  0  0  0  0  0  0  0  0
   -4.5913    0.4318    2.5490 H   0  0  0  0  0  0  0  0  0  0  0  0
    4.5602   -3.5729    1.8225 H   0  0  0  0  0  0  0  0  0  0  0  0
    5.3182   -2.7841   -2.3329 H   0  0  0  0  0  0  0  0  0  0  0  0
    5.5061   -4.2765   -0.3604 H   0  0  0  0  0  0  0  0  0  0  0  0
   -4.6713   -2.0446   -1.8303 H   0  0  0  0  0  0  0  0  0  0  0  0
   -6.0716    1.2444    0.5905 H   0  0  0  0  0  0  0  0  0  0  0  0
   -7.1987   -1.7109   -1.8969 H   0  0  0  0  0  0  0  0  0  0  0  0
    3.5205    4.8146   -1.0582 H   0  0  0  0  0  0  0  0  0  0  0  0
  1 11  2  0  0  0  0
  2 20  1  0  0  0  0
  2 45  1  0  0  0  0
  3 20  2  0  0  0  0
  4  7  1  0  0  0  0
  4 11  1  0  0  0  0
  4 30  1  0  0  0  0
  5  6  1  0  0  0  0
  5 25  1  0  0  0  0
  5 44  1  0  0  0  0
  6 26  2  0  0  0  0
  7  8  1  0  0  0  0
  7  9  1  0  0  0  0
  7 27  1  0  0  0  0
  8 15  2  0  0  0  0
  8 16  1  0  0  0  0
  9 20  1  0  0  0  0
  9 28  1  0  0  0  0
  9 29  1  0  0  0  0
 10 11  1  0  0  0  0
 10 14  2  0  0  0  0
 10 17  1  0  0  0  0
 12 13  2  0  0  0  0
 12 18  1  0  0  0  0
 12 19  1  0  0  0  0
 13 14  1  0  0  0  0
 13 21  1  0  0  0  0
 14 31  1  0  0  0  0
 15 22  1  0  0  0  0
 15 32  1  0  0  0  0
 16 23  2  0  0  0  0
 16 33  1  0  0  0  0
 17 18  2  0  0  0  0
 17 34  1  0  0  0  0
 18 35  1  0  0  0  0
 19 25  2  0  0  0  0
 19 26  1  0  0  0  0
 21 36  1  0  0  0  0
 21 37  1  0  0  0  0
 21 38  1  0  0  0  0
 22 24  2  0  0  0  0
 22 39  1  0  0  0  0
 23 24  1  0  0  0  0
 23 40  1  0  0  0  0
 24 41  1  0  0  0  0
 25 42  1  0  0  0  0
 26 43  1  0  0  0  0
M  END
> <PUBCHEM_COMPOUND_CID>
90385101

> <PUBCHEM_CONFORMER_RMSD>
0.8

> <PUBCHEM_CONFORMER_DIVERSEORDER>
2
26
38
55
52
30
16
27
54
36
39
19
12
42
56
21
45
57
29
24
48
17
40
8
33
50
10
41
43
47
31
46
3
11
6
44
25
28
22
51
14
37
53
32
9
7
18
13
35
23
5
49
15
20
34
4
1

> <PUBCHEM_MMFF94_PARTIAL_CHARGES>
39
1 -0.57
10 0.09
11 0.54
12 0.05
13 -0.14
14 -0.15
15 -0.15
16 -0.15
17 -0.15
18 -0.15
19 -0.05
2 -0.65
20 0.66
21 0.14
22 -0.15
23 -0.15
24 -0.15
25 -0.3
26 0.14
3 -0.57
30 0.37
31 0.15
32 0.15
33 0.15
34 0.15
35 0.15
39 0.15
4 -0.73
40 0.15
41 0.15
42 0.15
43 0.15
44 0.27
45 0.5
5 0.3
6 -0.71
7 0.44
8 -0.14
9 0.06

> <PUBCHEM_EFFECTIVE_ROTOR_COUNT>
7

> <PUBCHEM_PHARMACOPHORE_FEATURES>
10
1 1 acceptor
1 2 acceptor
1 3 acceptor
1 4 donor
1 5 donor
1 6 acceptor
3 2 3 20 anion
5 5 6 19 25 26 rings
6 10 12 13 14 17 18 rings
6 8 15 16 22 23 24 rings

> <PUBCHEM_HEAVY_ATOM_COUNT>
26

> <PUBCHEM_ATOM_DEF_STEREO_COUNT>
1

> <PUBCHEM_ATOM_UDEF_STEREO_COUNT>
0

> <PUBCHEM_BOND_DEF_STEREO_COUNT>
0

> <PUBCHEM_BOND_UDEF_STEREO_COUNT>
0

> <PUBCHEM_ISOTOPIC_ATOM_COUNT>
0

> <PUBCHEM_COMPONENT_COUNT>
1

> <PUBCHEM_CACTVS_TAUTO_COUNT>
7

> <PUBCHEM_CONFORMER_ID>
05632ACD00000002

> <PUBCHEM_MMFF94_ENERGY>
63.6986

> <PUBCHEM_FEATURE_SELFOVERLAP>
50.806

> <PUBCHEM_SHAPE_FINGERPRINT>
10319926 262 14907625515423711214
10498660 4 14707219798692461014
10670039 82 15068898586371517694
11135609 149 18191563299724497118
12166972 35 18201154365096446906
12616971 3 18130520656102034315
13533116 47 18411136952501240453
1361 4 18195805391979679839
13782708 43 18201146737941684231
13955234 65 18340483482288926464
14347332 77 18338793412773812909
15183329 4 17096089082587463627
15188451 53 17345746391650215155
15475509 8 17604148113258261869
15575132 122 13045940162821108335
17349148 13 17917998243470171566
17844677 252 18335700520866829149
17857418 61 17989485208490769471
1813 80 18200319797543351846
18222031 100 18270966739516600546
18681886 176 15912499029392199040
19784866 240 18131349670346954107
20028762 73 17917709046406741638
20388580 30 18341613685900263826
20554085 129 17915450822054912248
20626108 58 18271523075304535466
20645477 70 18409163320650042406
21304303 282 17192055866947751220
21344244 78 18201142288028310320
22061861 79 18186804660428149915
221357 26 18041560243666059468
2215653 11 17821450131978067539
2303208 19 17531257170973798523
23081809 10 17989205976072166725
23559900 14 17240773894789846198
23569914 152 17177951997290391991
23569943 247 18042679491323462067
3004659 81 18202847647236282062
34797466 226 17095811018115063725
3886686 26 15692400706734794327
46194498 28 18260263062354964780
5104073 3 16271645689601045843
5281201 14 18333446530271689300
59682541 52 18409720790504938109
6025842 7 18337109072724200908
6695519 79 17478908523988688754
70251023 43 18336825303691589656
7970288 3 18127692634813227870
960060 61 18410294726377871732

> <PUBCHEM_SHAPE_MULTIPOLES>
502.52
15.72
3.27
1.7
17.05
1.94
-0.58
-8.78
5.22
-8.61
0.79
0.86
-0.23
-1.04

> <PUBCHEM_SHAPE_SELFOVERLAP>
1089.963

> <PUBCHEM_SHAPE_VOLUME>
274.9

> <PUBCHEM_COORDINATE_TYPE>
2
5
10

$$$$
118663033
  -OEChem-05102415153D

 43 45  0     1  0  0  0  0  0999 V2000
    1.6207   -0.0387    2.0987 O   0  0  0  0  0  0  0  0  0  0  0  0
   -3.9529   -1.5352    2.1607 O   0  0  0  0  0  0  0  0  0  0  0  0
    2.0895    1.2265    0.2130 N   0  0  0  0  0  0  0  0  0  0  0  0
   -5.9893   -0.2978   -1.7344 N   0  0  0  0  0  0  0  0  0  0  0  0
   -6.4808    0.3709   -0.6773 N   0  0  0  0  0  0  0  0  0  0  0  0
    3.5024    1.3914    0.4684 C   0  0  1  0  0  0  0  0  0  0  0  0
    4.3089    0.2546   -0.1216 C   0  0  0  0  0  0  0  0  0  0  0  0
   -2.2733   -0.7612    0.6651 C   0  0  0  0  0  0  0  0  0  0  0  0
   -2.8352    0.2330   -0.1359 C   0  0  0  0  0  0  0  0  0  0  0  0
   -0.1638    0.4167    0.6473 C   0  0  0  0  0  0  0  0  0  0  0  0
   -0.9375   -0.6694    1.0567 C   0  0  0  0  0  0  0  0  0  0  0  0
    1.2288    0.5132    1.0553 C   0  0  0  0  0  0  0  0  0  0  0  0
    3.9695    2.7592   -0.0248 C   0  0  0  0  0  0  0  0  0  0  0  0
   -2.0612    1.3189   -0.5456 C   0  0  0  0  0  0  0  0  0  0  0  0
   -0.7257    1.4109   -0.1537 C   0  0  0  0  0  0  0  0  0  0  0  0
   -4.2096    0.1615   -0.5544 C   0  0  0  0  0  0  0  0  0  0  0  0
   -3.0710   -1.9405    1.1228 C   0  0  0  0  0  0  0  0  0  0  0  0
    3.9062   -0.3383   -1.3183 C   0  0  0  0  0  0  0  0  0  0  0  0
    5.4546   -0.2001    0.5313 C   0  0  0  0  0  0  0  0  0  0  0  0
   -4.6342   -0.4501   -1.7087 C   0  0  0  0  0  0  0  0  0  0  0  0
    4.6495   -1.3860   -1.8623 C   0  0  0  0  0  0  0  0  0  0  0  0
    6.1979   -1.2478   -0.0126 C   0  0  0  0  0  0  0  0  0  0  0  0
   -5.3889    0.6488    0.0400 C   0  0  0  0  0  0  0  0  0  0  0  0
    5.7954   -1.8405   -1.2096 C   0  0  0  0  0  0  0  0  0  0  0  0
    3.6306    1.3678    1.5585 H   0  0  0  0  0  0  0  0  0  0  0  0
    1.7448    1.5747   -0.6759 H   0  0  0  0  0  0  0  0  0  0  0  0
   -0.5015   -1.4476    1.6789 H   0  0  0  0  0  0  0  0  0  0  0  0
    5.0269    2.9239    0.2093 H   0  0  0  0  0  0  0  0  0  0  0  0
    3.3881    3.5609    0.4439 H   0  0  0  0  0  0  0  0  0  0  0  0
    3.8494    2.8553   -1.1102 H   0  0  0  0  0  0  0  0  0  0  0  0
   -2.4846    2.1067   -1.1646 H   0  0  0  0  0  0  0  0  0  0  0  0
   -0.1683    2.2881   -0.4689 H   0  0  0  0  0  0  0  0  0  0  0  0
   -3.6463   -2.3844    0.3037 H   0  0  0  0  0  0  0  0  0  0  0  0
   -2.4222   -2.7304    1.5178 H   0  0  0  0  0  0  0  0  0  0  0  0
    3.0276    0.0034   -1.8580 H   0  0  0  0  0  0  0  0  0  0  0  0
    5.7799    0.2545    1.4632 H   0  0  0  0  0  0  0  0  0  0  0  0
   -4.1108   -0.9699   -2.4993 H   0  0  0  0  0  0  0  0  0  0  0  0
    4.3383   -1.8455   -2.7959 H   0  0  0  0  0  0  0  0  0  0  0  0
    7.0903   -1.6015    0.4953 H   0  0  0  0  0  0  0  0  0  0  0  0
   -5.5018    1.1949    0.9661 H   0  0  0  0  0  0  0  0  0  0  0  0
    6.3747   -2.6555   -1.6336 H   0  0  0  0  0  0  0  0  0  0  0  0
   -6.6381   -0.6237   -2.4398 H   0  0  0  0  0  0  0  0  0  0  0  0
   -4.4583   -2.3213    2.4290 H   0  0  0  0  0  0  0  0  0  0  0  0
  1 12  2  0  0  0  0
  2 17  1  0  0  0  0
  2 43  1  0  0  0  0
  3  6  1  0  0  0  0
  3 12  1  0  0  0  0
  3 26  1  0  0  0  0
  4  5  1  0  0  0  0
  4 20  1  0  0  0  0
  4 42  1  0  0  0  0
  5 23  2  0  0  0  0
  6  7  1  0  0  0  0
  6 13  1  0  0  0  0
  6 25  1  0  0  0  0
  7 18  2  0  0  0  0
  7 19  1  0  0  0  0
  8  9  2  0  0  0  0
  8 11  1  0  0  0  0
  8 17  1  0  0  0  0
  9 14  1  0  0  0  0
  9 16  1  0  0  0  0
 10 11  2  0  0  0  0
 10 12  1  0  0  0  0
 10 15  1  0  0  0  0
 11 27  1  0  0  0  0
 13 28  1  0  0  0  0
 13 29  1  0  0  0  0
 13 30  1  0  0  0  0
 14 15  2  0  0  0  0
 14 31  1  0  0  0  0
 15 32  1  0  0  0  0
 16 20  2  0  0  0  0
 16 23  1  0  0  0  0
 17 33  1  0  0  0  0
 17 34  1  0  0  0  0
 18 21  1  0  0  0  0
 18 35  1  0  0  0  0
 19 22  2  0  0  0  0
 19 36  1  0  0  0  0
 20 37  1  0  0  0  0
 21 24  2  0  0  0  0
 21 38  1  0  0  0  0
 22 24  1  0  0  0  0
 22 39  1  0  0  0  0
 23 40  1  0  0  0  0
 24 41  1  0  0  0  0
M  END
> <PUBCHEM_COMPOUND_CID>
118663033

> <PUBCHEM_CONFORMER_RMSD>
0.8

> <PUBCHEM_CONFORMER_DIVERSEORDER>
2
13
27
25
20
11
24
22
17
5
14
1
16
26
6
8
21
3
18
9
10
23
12
19
4
15
7

> <PUBCHEM_MMFF94_PARTIAL_CHARGES>
36
1 -0.57
10 0.09
11 -0.15
12 0.54
14 -0.15
15 -0.15
16 -0.05
17 0.42
18 -0.15
19 -0.15
2 -0.68
20 -0.3
21 -0.15
22 -0.15
23 0.14
24 -0.15
26 0.37
27 0.15
3 -0.73
31 0.15
32 0.15
35 0.15
36 0.15
37 0.15
38 0.15
39 0.15
4 0.3
40 0.15
41 0.15
42 0.27
43 0.4
5 -0.71
6 0.44
7 -0.14
8 -0.14
9 0.05

> <PUBCHEM_EFFECTIVE_ROTOR_COUNT>
6

> <PUBCHEM_PHARMACOPHORE_FEATURES>
9
1 1 acceptor
1 2 acceptor
1 2 donor
1 3 donor
1 4 donor
1 5 acceptor
5 4 5 16 20 23 rings
6 7 18 19 21 22 24 rings
6 8 9 10 11 14 15 rings

> <PUBCHEM_HEAVY_ATOM_COUNT>
24

> <PUBCHEM_ATOM_DEF_STEREO_COUNT>
1

> <PUBCHEM_ATOM_UDEF_STEREO_COUNT>
0

> <PUBCHEM_BOND_DEF_STEREO_COUNT>
0

> <PUBCHEM_BOND_UDEF_STEREO_COUNT>
0

> <PUBCHEM_ISOTOPIC_ATOM_COUNT>
0

> <PUBCHEM_COMPONENT_COUNT>
1

> <PUBCHEM_CACTVS_TAUTO_COUNT>
9

> <PUBCHEM_CONFORMER_ID>
0712A77900000002

> <PUBCHEM_MMFF94_ENERGY>
61.6973

> <PUBCHEM_FEATURE_SELFOVERLAP>
45.672

> <PUBCHEM_SHAPE_FINGERPRINT>
10670039 82 16805600305389124244
11796584 16 18333732433808062202
12236239 1 16056881320876706610
12390115 104 17969496010310948765
12892183 10 12103578450146359784
13533116 47 17418089927952503016
13914758 101 16773803554864486089
14347332 77 18271520884238510405
14528608 73 14634875257794249420
15183329 4 18259984842831400362
15475509 8 18337675218123156677
15510800 12 18201169771519314678
15961568 22 13262676998077613351
17857418 61 16702300161140397367
1813 80 16056887944186146472
19784866 240 17060340703824603684
20028762 73 16845294887519295430
20567600 247 17489577970139766559
20645477 70 18273493477429932764
21315764 119 17385724643326694030
21641784 216 17095798811544436837
21792934 111 11600008778394761859
22061861 79 18412827996994762782
221357 26 18335135371885020300
2215653 11 18409449180756739718
2303208 19 18041008379144470763
23536379 177 17775564234843792121
23559900 14 18260547870258146496
23569943 247 18200030617317113187
29717793 49 18342736317057756980
3004659 81 17918275346771146092
34797466 226 18187928447047494293
3545911 37 17458059365833942065
4015057 19 18272364330301220969
4058900 60 16154544265020800601
46194498 28 18410290324754403348
474 4 14779545664993417064
5104073 3 14261066653728075067
5718773 13 18057886836800166854
59755656 215 18041275478728770474
59755656 520 13262399964044007969
8988823 20 16773789312647554440
960060 61 18131071562703724988

> <PUBCHEM_SHAPE_MULTIPOLES>
467.23
16.38
1.89
1.66
0.33
0.39
-0.33
-5.33
5.58
-2.5
0.21
1.16
-0.69
1.37

> <PUBCHEM_SHAPE_SELFOVERLAP>
1015.084

> <PUBCHEM_SHAPE_VOLUME>
256.3

> <PUBCHEM_COORDINATE_TYPE>
2
5
10

$$$$
118662926
  -OEChem-05102415153D

 44 46  0     1  0  0  0  0  0999 V2000
   -2.9949    0.6279    2.2765 F   0  0  0  0  0  0  0  0  0  0  0  0
   -4.6547   -0.8698   -1.9116 F   0  0  0  0  0  0  0  0  0  0  0  0
    0.6190    1.9963    0.0699 F   0  0  0  0  0  0  0  0  0  0  0  0
   -3.0272    3.3386   -1.0644 O   0  0  0  0  0  0  0  0  0  0  0  0
    3.2629    1.7566    0.6618 O   0  0  0  0  0  0  0  0  0  0  0  0
   -1.3159   -0.6030   -2.2172 O   0  0  0  0  0  0  0  0  0  0  0  0
   -1.5944    0.7716   -0.3707 N   0  0  0  0  0  0  0  0  0  0  0  0
    6.5555   -1.3955    0.7907 N   0  0  0  0  0  0  0  0  0  0  0  0
    6.9629   -0.3352    0.0725 N   0  0  0  0  0  0  0  0  0  0  0  0
   -3.0140    0.9876   -0.5349 C   0  0  1  0  0  0  0  0  0  0  0  0
   -3.8062   -0.0949    0.1660 C   0  0  0  0  0  0  0  0  0  0  0  0
   -3.4042    2.3929   -0.0689 C   0  0  0  0  0  0  0  0  0  0  0  0
    0.5860   -0.1595   -0.9194 C   0  0  0  0  0  0  0  0  0  0  0  0
   -0.8273   -0.0198   -1.2334 C   0  0  0  0  0  0  0  0  0  0  0  0
    3.2979   -0.4337   -0.3256 C   0  0  0  0  0  0  0  0  0  0  0  0
   -3.7486   -0.2131    1.5545 C   0  0  0  0  0  0  0  0  0  0  0  0
   -4.5934   -0.9747   -0.5769 C   0  0  0  0  0  0  0  0  0  0  0  0
    2.6212    0.7337    0.0276 C   0  0  0  0  0  0  0  0  0  0  0  0
    1.2652    0.8709   -0.2693 C   0  0  0  0  0  0  0  0  0  0  0  0
    1.2626   -1.3271   -1.2726 C   0  0  0  0  0  0  0  0  0  0  0  0
    2.6185   -1.4641   -0.9757 C   0  0  0  0  0  0  0  0  0  0  0  0
    4.6959   -0.5952   -0.0293 C   0  0  0  0  0  0  0  0  0  0  0  0
   -4.4783   -1.2111    2.2004 C   0  0  0  0  0  0  0  0  0  0  0  0
   -5.3232   -1.9728    0.0689 C   0  0  0  0  0  0  0  0  0  0  0  0
   -5.2656   -2.0909    1.4576 C   0  0  0  0  0  0  0  0  0  0  0  0
    5.2065   -1.5948    0.7625 C   0  0  0  0  0  0  0  0  0  0  0  0
    5.8226    0.1497   -0.4260 C   0  0  0  0  0  0  0  0  0  0  0  0
    3.2711    1.7295    2.0872 C   0  0  0  0  0  0  0  0  0  0  0  0
   -3.2134    0.9326   -1.6129 H   0  0  0  0  0  0  0  0  0  0  0  0
   -1.1591    1.1555    0.4630 H   0  0  0  0  0  0  0  0  0  0  0  0
   -2.9196    2.6708    0.8731 H   0  0  0  0  0  0  0  0  0  0  0  0
   -4.4893    2.4753    0.0593 H   0  0  0  0  0  0  0  0  0  0  0  0
    0.7503   -2.1425   -1.7766 H   0  0  0  0  0  0  0  0  0  0  0  0
    3.1273   -2.3813   -1.2633 H   0  0  0  0  0  0  0  0  0  0  0  0
   -4.4332   -1.3029    3.2815 H   0  0  0  0  0  0  0  0  0  0  0  0
   -5.9359   -2.6578   -0.5097 H   0  0  0  0  0  0  0  0  0  0  0  0
   -5.8337   -2.8680    1.9605 H   0  0  0  0  0  0  0  0  0  0  0  0
   -3.2965    4.2153   -0.7412 H   0  0  0  0  0  0  0  0  0  0  0  0
    4.7480   -2.4130    1.3005 H   0  0  0  0  0  0  0  0  0  0  0  0
    5.8646    1.0258   -1.0579 H   0  0  0  0  0  0  0  0  0  0  0  0
    7.2544   -1.9421    1.2782 H   0  0  0  0  0  0  0  0  0  0  0  0
    3.8592    2.5803    2.4419 H   0  0  0  0  0  0  0  0  0  0  0  0
    3.7293    0.8089    2.4613 H   0  0  0  0  0  0  0  0  0  0  0  0
    2.2519    1.8239    2.4753 H   0  0  0  0  0  0  0  0  0  0  0  0
  1 16  1  0  0  0  0
  2 17  1  0  0  0  0
  3 19  1  0  0  0  0
  4 12  1  0  0  0  0
  4 38  1  0  0  0  0
  5 18  1  0  0  0  0
  5 28  1  0  0  0  0
  6 14  2  0  0  0  0
  7 10  1  0  0  0  0
  7 14  1  0  0  0  0
  7 30  1  0  0  0  0
  8  9  1  0  0  0  0
  8 26  1  0  0  0  0
  8 41  1  0  0  0  0
  9 27  2  0  0  0  0
 10 11  1  0  0  0  0
 10 12  1  0  0  0  0
 10 29  1  0  0  0  0
 11 16  2  0  0  0  0
 11 17  1  0  0  0  0
 12 31  1  0  0  0  0
 12 32  1  0  0  0  0
 13 14  1  0  0  0  0
 13 19  2  0  0  0  0
 13 20  1  0  0  0  0
 15 18  2  0  0  0  0
 15 21  1  0  0  0  0
 15 22  1  0  0  0  0
 16 23  1  0  0  0  0
 17 24  2  0  0  0  0
 18 19  1  0  0  0  0
 20 21  2  0  0  0  0
 20 33  1  0  0  0  0
 21 34  1  0  0  0  0
 22 26  2  0  0  0  0
 22 27  1  0  0  0  0
 23 25  2  0  0  0  0
 23 35  1  0  0  0  0
 24 25  1  0  0  0  0
 24 36  1  0  0  0  0
 25 37  1  0  0  0  0
 26 39  1  0  0  0  0
 27 40  1  0  0  0  0
 28 42  1  0  0  0  0
 28 43  1  0  0  0  0
 28 44  1  0  0  0  0
M  END
> <PUBCHEM_COMPOUND_CID>
118662926

> <PUBCHEM_CONFORMER_RMSD>
0.8

> <PUBCHEM_CONFORMER_DIVERSEORDER>
1
42
31
49
52
35
45
50
27
16
10
46
3
24
33
30
37
41
28
17
25
36
44
48
5
2
11
32
12
22
47
19
39
20
23
29
51
4
34
13
38
6
21
9
7
26
18
14
40
43
15
8

> <PUBCHEM_MMFF94_PARTIAL_CHARGES>
38
1 -0.19
10 0.44
11 -0.14
12 0.28
13 0.09
14 0.54
15 0.05
16 0.19
17 0.19
18 0.08
19 0.19
2 -0.19
20 -0.15
21 -0.15
22 -0.05
23 -0.15
24 -0.15
25 -0.15
26 -0.3
27 0.14
28 0.28
3 -0.19
30 0.37
33 0.15
34 0.15
35 0.15
36 0.15
37 0.15
38 0.4
39 0.15
4 -0.68
40 0.15
41 0.27
5 -0.36
6 -0.57
7 -0.73
8 0.3
9 -0.71

> <PUBCHEM_EFFECTIVE_ROTOR_COUNT>
7

> <PUBCHEM_PHARMACOPHORE_FEATURES>
10
1 4 acceptor
1 4 donor
1 5 acceptor
1 6 acceptor
1 7 donor
1 8 donor
1 9 acceptor
5 8 9 22 26 27 rings
6 11 16 17 23 24 25 rings
6 13 15 18 19 20 21 rings

> <PUBCHEM_HEAVY_ATOM_COUNT>
28

> <PUBCHEM_ATOM_DEF_STEREO_COUNT>
1

> <PUBCHEM_ATOM_UDEF_STEREO_COUNT>
0

> <PUBCHEM_BOND_DEF_STEREO_COUNT>
0

> <PUBCHEM_BOND_UDEF_STEREO_COUNT>
0

> <PUBCHEM_ISOTOPIC_ATOM_COUNT>
0

> <PUBCHEM_COMPONENT_COUNT>
1

> <PUBCHEM_CACTVS_TAUTO_COUNT>
9

> <PUBCHEM_CONFORMER_ID>
0712A70E00000001

> <PUBCHEM_MMFF94_ENERGY>
73.8537

> <PUBCHEM_FEATURE_SELFOVERLAP>
50.749

> <PUBCHEM_SHAPE_FINGERPRINT>
105312 117 10735886062563655129
11135926 11 11169903966728836832
11315181 36 17676490548893991125
11445158 3 18261673783202483340
11545043 162 18335699421086019960
11646440 116 17275385404942591250
11796584 16 16950278490425748714
12507557 5 17775565316964469833
12596602 18 18202284693341464658
12633257 1 18129955575560464843
13583140 156 18271522009751634909
13690498 29 8573840473791326089
13782708 43 17822007576295268074
14341114 328 16629975437801746259
14849402 71 17346032415725131144
14950920 106 18129673009814860651
14955137 171 17846790585448526868
15081414 286 17274829013456906828
15183329 4 12179838428901718978
15238133 3 15410903989236659674
17844677 252 18335141994761449140
17980427 23 14764338362772509304
18222031 100 17022899090267113820
18927931 339 18335146384259983327
200 152 13551473661376953622
21033648 29 18130490968813895760
21623969 137 18407761426535785430
21756936 100 14836404722622182879
22393880 68 13551481422351156915
2303208 19 18130235848357692430
23198884 109 9871747971198209715
23402539 116 13334741219539631158
23559900 14 17676767681991458149
23569943 247 16198476317382229166
25147074 1 17702092772052936348
2838139 119 11959724950486667522
392239 28 17274829103213656179
4073 2 18187930530195998146
465052 167 18410576189314004750
5104073 3 18341327817045811992
5718773 13 17970072338987497763
6431902 208 18259988171231056091
7495541 125 18259987085310783020
960060 61 13118272694288159018

> <PUBCHEM_SHAPE_MULTIPOLES>
521.85
15.4
2.34
1.81
10.89
1.3
0.49
-7.22
4.32
-1.94
0.18
-1.61
-0.18
1.31

> <PUBCHEM_SHAPE_SELFOVERLAP>
1141.431

> <PUBCHEM_SHAPE_VOLUME>
283.3

> <PUBCHEM_COORDINATE_TYPE>
2
5
10

$$$$
118662942
  -OEChem-05102415153D

 44 46  0     1  0  0  0  0  0999 V2000
   -4.8644   -1.5914   -1.3787 F   0  0  0  0  0  0  0  0  0  0  0  0
   -3.0579    1.4685    1.7698 F   0  0  0  0  0  0  0  0  0  0  0  0
    2.0111    3.3897   -0.5855 F   0  0  0  0  0  0  0  0  0  0  0  0
    3.2788    3.3879    1.1814 F   0  0  0  0  0  0  0  0  0  0  0  0
   -3.0467    2.4966   -2.4082 O   0  0  0  0  0  0  0  0  0  0  0  0
    3.1668    1.5181   -0.0493 O   0  0  0  0  0  0  0  0  0  0  0  0
   -1.5255   -1.6358   -1.7729 O   0  0  0  0  0  0  0  0  0  0  0  0
   -1.7078    0.4055   -0.6881 N   0  0  0  0  0  0  0  0  0  0  0  0
    6.6568   -1.4170    0.0903 N   0  0  0  0  0  0  0  0  0  0  0  0
    6.5373   -0.7902    1.2732 N   0  0  0  0  0  0  0  0  0  0  0  0
   -3.1204    0.5969   -0.9272 C   0  0  1  0  0  0  0  0  0  0  0  0
   -3.9420   -0.0460    0.1693 C   0  0  0  0  0  0  0  0  0  0  0  0
   -3.4419    2.0833   -1.1041 C   0  0  0  0  0  0  0  0  0  0  0  0
    0.4199   -0.7710   -0.7901 C   0  0  0  0  0  0  0  0  0  0  0  0
   -0.9924   -0.7126   -1.1320 C   0  0  0  0  0  0  0  0  0  0  0  0
    3.1284   -0.8839   -0.1308 C   0  0  0  0  0  0  0  0  0  0  0  0
   -4.7806   -1.1207   -0.1268 C   0  0  0  0  0  0  0  0  0  0  0  0
   -3.8613    0.4366    1.4755 C   0  0  0  0  0  0  0  0  0  0  0  0
    2.4903    0.3510   -0.2493 C   0  0  0  0  0  0  0  0  0  0  0  0
    1.1360    0.4073   -0.5790 C   0  0  0  0  0  0  0  0  0  0  0  0
    1.0581   -2.0058   -0.6717 C   0  0  0  0  0  0  0  0  0  0  0  0
    2.4123   -2.0621   -0.3423 C   0  0  0  0  0  0  0  0  0  0  0  0
    4.5232   -0.9649    0.2099 C   0  0  0  0  0  0  0  0  0  0  0  0
   -5.5385   -1.7129    0.8836 C   0  0  0  0  0  0  0  0  0  0  0  0
   -4.6191   -0.1556    2.4859 C   0  0  0  0  0  0  0  0  0  0  0  0
   -5.4575   -1.2306    2.1899 C   0  0  0  0  0  0  0  0  0  0  0  0
    5.4795   -1.5470   -0.5860 C   0  0  0  0  0  0  0  0  0  0  0  0
    5.2317   -0.5164    1.3407 C   0  0  0  0  0  0  0  0  0  0  0  0
    2.4260    2.6226    0.4525 C   0  0  0  0  0  0  0  0  0  0  0  0
   -3.3443    0.0974   -1.8785 H   0  0  0  0  0  0  0  0  0  0  0  0
   -1.2587    1.0712   -0.0673 H   0  0  0  0  0  0  0  0  0  0  0  0
   -4.5197    2.2630   -1.0220 H   0  0  0  0  0  0  0  0  0  0  0  0
   -2.9265    2.7130   -0.3710 H   0  0  0  0  0  0  0  0  0  0  0  0
    0.6528    1.3658   -0.7386 H   0  0  0  0  0  0  0  0  0  0  0  0
    0.5166   -2.9355   -0.8264 H   0  0  0  0  0  0  0  0  0  0  0  0
    2.8884   -3.0356   -0.2495 H   0  0  0  0  0  0  0  0  0  0  0  0
   -6.1911   -2.5497    0.6530 H   0  0  0  0  0  0  0  0  0  0  0  0
   -4.5559    0.2201    3.5028 H   0  0  0  0  0  0  0  0  0  0  0  0
   -6.0473   -1.6918    2.9767 H   0  0  0  0  0  0  0  0  0  0  0  0
   -3.2724    3.4390   -2.4891 H   0  0  0  0  0  0  0  0  0  0  0  0
    5.4370   -2.0315   -1.5518 H   0  0  0  0  0  0  0  0  0  0  0  0
    4.8548   -0.0016    2.2133 H   0  0  0  0  0  0  0  0  0  0  0  0
    7.5757   -1.7312   -0.1955 H   0  0  0  0  0  0  0  0  0  0  0  0
    1.5844    2.3544    1.1012 H   0  0  0  0  0  0  0  0  0  0  0  0
  1 17  1  0  0  0  0
  2 18  1  0  0  0  0
  3 29  1  0  0  0  0
  4 29  1  0  0  0  0
  5 13  1  0  0  0  0
  5 40  1  0  0  0  0
  6 19  1  0  0  0  0
  6 29  1  0  0  0  0
  7 15  2  0  0  0  0
  8 11  1  0  0  0  0
  8 15  1  0  0  0  0
  8 31  1  0  0  0  0
  9 10  1  0  0  0  0
  9 27  1  0  0  0  0
  9 43  1  0  0  0  0
 10 28  2  0  0  0  0
 11 12  1  0  0  0  0
 11 13  1  0  0  0  0
 11 30  1  0  0  0  0
 12 17  2  0  0  0  0
 12 18  1  0  0  0  0
 13 32  1  0  0  0  0
 13 33  1  0  0  0  0
 14 15  1  0  0  0  0
 14 20  2  0  0  0  0
 14 21  1  0  0  0  0
 16 19  2  0  0  0  0
 16 22  1  0  0  0  0
 16 23  1  0  0  0  0
 17 24  1  0  0  0  0
 18 25  2  0  0  0  0
 19 20  1  0  0  0  0
 20 34  1  0  0  0  0
 21 22  2  0  0  0  0
 21 35  1  0  0  0  0
 22 36  1  0  0  0  0
 23 27  2  0  0  0  0
 23 28  1  0  0  0  0
 24 26  2  0  0  0  0
 24 37  1  0  0  0  0
 25 26  1  0  0  0  0
 25 38  1  0  0  0  0
 26 39  1  0  0  0  0
 27 41  1  0  0  0  0
 28 42  1  0  0  0  0
 29 44  1  0  0  0  0
M  END
> <PUBCHEM_COMPOUND_CID>
118662942

> <PUBCHEM_CONFORMER_RMSD>
1

> <PUBCHEM_CONFORMER_DIVERSEORDER>
1
11
15
16
14
4
7
10
12
2
5
13
8
9
6
3

> <PUBCHEM_MMFF94_PARTIAL_CHARGES>
40
1 -0.19
10 -0.71
11 0.44
12 -0.14
13 0.28
14 0.09
15 0.54
16 0.05
17 0.19
18 0.19
19 0.08
2 -0.19
20 -0.15
21 -0.15
22 -0.15
23 -0.05
24 -0.15
25 -0.15
26 -0.15
27 -0.3
28 0.14
29 0.96
3 -0.34
31 0.37
34 0.15
35 0.15
36 0.15
37 0.15
38 0.15
39 0.15
4 -0.34
40 0.4
41 0.15
42 0.15
43 0.27
5 -0.68
6 -0.36
7 -0.57
8 -0.73
9 0.3

> <PUBCHEM_EFFECTIVE_ROTOR_COUNT>
8

> <PUBCHEM_PHARMACOPHORE_FEATURES>
10
1 10 acceptor
1 5 acceptor
1 5 donor
1 6 acceptor
1 7 acceptor
1 8 donor
1 9 donor
5 9 10 23 27 28 rings
6 12 17 18 24 25 26 rings
6 14 16 19 20 21 22 rings

> <PUBCHEM_HEAVY_ATOM_COUNT>
29

> <PUBCHEM_ATOM_DEF_STEREO_COUNT>
1

> <PUBCHEM_ATOM_UDEF_STEREO_COUNT>
0

> <PUBCHEM_BOND_DEF_STEREO_COUNT>
0

> <PUBCHEM_BOND_UDEF_STEREO_COUNT>
0

> <PUBCHEM_ISOTOPIC_ATOM_COUNT>
0

> <PUBCHEM_COMPONENT_COUNT>
1

> <PUBCHEM_CACTVS_TAUTO_COUNT>
9

> <PUBCHEM_CONFORMER_ID>
0712A71E00000001

> <PUBCHEM_MMFF94_ENERGY>
72.7213

> <PUBCHEM_FEATURE_SELFOVERLAP>
50.749

> <PUBCHEM_SHAPE_FINGERPRINT>
10366900 7 17603299341188034683
105312 117 12319738047011108281
11315181 36 16732989712705149967
11545043 162 17894346661698134053
11646440 116 18273495659415666146
12166972 35 17988927782023261242
12403259 118 18060148613395008569
12507557 5 18342736282676757197
12616971 3 18131358539670516355
12633257 1 18339374036306842819
13583140 156 18334853871095970127
13590594 115 18412826850750684888
13782708 43 17749111075990937970
14341114 328 17631749265234777195
14739800 52 16986582311723527640
14849402 71 18200316657949230288
14950920 106 18337969968811579195
14955137 171 18342466902670869550
15021287 119 18343862229754484670
15081414 286 18130508540294834094
15183329 4 16630237014416988414
15475509 8 17774181045506353324
17844677 252 17967536761719292236
17980427 23 16702294664099625928
18222031 100 15791730844838188407
18785283 64 18336270153894734468
18927931 339 17894638032918025503
21033648 29 17631430303308890202
21033650 10 14692304987711797256
21756936 100 16200147677771581239
23559900 14 16515973669845005637
23569943 247 17842560643985224358
25147074 1 17915734478040825166
3004659 81 13984664797792464171
350125 39 18412542145404043302
38570 142 17983881135300423876
392239 28 18271259312794475139
5104073 3 18408040714809542977
6009941 240 17750789935841063036
7495541 125 17385446523061923902
8863177 126 17968664933479516946
960060 61 11025787730221622153

> <PUBCHEM_SHAPE_MULTIPOLES>
535.16
15.21
2.86
1.87
6.55
2.76
0.47
-6.52
6.55
1.09
-0.33
-2.62
0.18
1.48

> <PUBCHEM_SHAPE_SELFOVERLAP>
1166.916

> <PUBCHEM_SHAPE_VOLUME>
291

> <PUBCHEM_COORDINATE_TYPE>
2
5
10

$$$$
118663000
  -OEChem-05102415153D

 43 45  0     1  0  0  0  0  0999 V2000
    6.5229    1.4268    2.5083 F   0  0  0  0  0  0  0  0  0  0  0  0
   -2.0203    3.6046   -0.0691 F   0  0  0  0  0  0  0  0  0  0  0  0
   -4.0371    3.4723   -0.8715 F   0  0  0  0  0  0  0  0  0  0  0  0
   -3.1450    1.6448    0.0706 O   0  0  0  0  0  0  0  0  0  0  0  0
    1.4139    0.7475   -1.9501 O   0  0  0  0  0  0  0  0  0  0  0  0
    1.9999   -1.2743   -0.9774 N   0  0  0  0  0  0  0  0  0  0  0  0
   -5.9377   -1.5294    1.7854 N   0  0  0  0  0  0  0  0  0  0  0  0
   -6.5207   -0.9241    0.7365 N   0  0  0  0  0  0  0  0  0  0  0  0
    3.3948   -1.2439   -1.3547 C   0  0  1  0  0  0  0  0  0  0  0  0
    4.2341   -0.5282   -0.3183 C   0  0  0  0  0  0  0  0  0  0  0  0
    3.8937   -2.6596   -1.6371 C   0  0  0  0  0  0  0  0  0  0  0  0
   -0.2772   -0.4287   -0.8298 C   0  0  0  0  0  0  0  0  0  0  0  0
    1.0879   -0.2638   -1.3035 C   0  0  0  0  0  0  0  0  0  0  0  0
   -2.8968   -0.7461    0.0758 C   0  0  0  0  0  0  0  0  0  0  0  0
   -2.3860    0.5327   -0.1471 C   0  0  0  0  0  0  0  0  0  0  0  0
   -1.0762    0.6913   -0.5999 C   0  0  0  0  0  0  0  0  0  0  0  0
   -0.7880   -1.7075   -0.6068 C   0  0  0  0  0  0  0  0  0  0  0  0
    3.9048   -0.6242    1.0337 C   0  0  0  0  0  0  0  0  0  0  0  0
    5.3368    0.2284   -0.7156 C   0  0  0  0  0  0  0  0  0  0  0  0
   -2.0976   -1.8661   -0.1537 C   0  0  0  0  0  0  0  0  0  0  0  0
   -4.2449   -0.9324    0.5407 C   0  0  0  0  0  0  0  0  0  0  0  0
    4.6783    0.0357    1.9887 C   0  0  0  0  0  0  0  0  0  0  0  0
    6.1101    0.8885    0.2394 C   0  0  0  0  0  0  0  0  0  0  0  0
    5.7810    0.7921    1.5915 C   0  0  0  0  0  0  0  0  0  0  0  0
   -4.5758   -1.5608    1.7165 C   0  0  0  0  0  0  0  0  0  0  0  0
   -5.4816   -0.5615   -0.0203 C   0  0  0  0  0  0  0  0  0  0  0  0
   -2.8735    2.7861   -0.7322 C   0  0  0  0  0  0  0  0  0  0  0  0
    3.4556   -0.6753   -2.2918 H   0  0  0  0  0  0  0  0  0  0  0  0
    1.7110   -2.0307   -0.3654 H   0  0  0  0  0  0  0  0  0  0  0  0
    3.2860   -3.1386   -2.4126 H   0  0  0  0  0  0  0  0  0  0  0  0
    4.9349   -2.6512   -1.9772 H   0  0  0  0  0  0  0  0  0  0  0  0
    3.8407   -3.2884   -0.7406 H   0  0  0  0  0  0  0  0  0  0  0  0
   -0.6432    1.6769   -0.7456 H   0  0  0  0  0  0  0  0  0  0  0  0
   -0.2112   -2.6065   -0.8034 H   0  0  0  0  0  0  0  0  0  0  0  0
    3.0615   -1.2175    1.3755 H   0  0  0  0  0  0  0  0  0  0  0  0
    5.6048    0.3100   -1.7656 H   0  0  0  0  0  0  0  0  0  0  0  0
   -2.4795   -2.8725    0.0028 H   0  0  0  0  0  0  0  0  0  0  0  0
    4.4244   -0.0415    3.0417 H   0  0  0  0  0  0  0  0  0  0  0  0
    6.9687    1.4774   -0.0694 H   0  0  0  0  0  0  0  0  0  0  0  0
   -3.9842   -2.0180    2.4977 H   0  0  0  0  0  0  0  0  0  0  0  0
   -5.6732   -0.0425   -0.9491 H   0  0  0  0  0  0  0  0  0  0  0  0
   -6.5317   -1.9001    2.5165 H   0  0  0  0  0  0  0  0  0  0  0  0
   -2.4989    2.5619   -1.7373 H   0  0  0  0  0  0  0  0  0  0  0  0
  1 24  1  0  0  0  0
  2 27  1  0  0  0  0
  3 27  1  0  0  0  0
  4 15  1  0  0  0  0
  4 27  1  0  0  0  0
  5 13  2  0  0  0  0
  6  9  1  0  0  0  0
  6 13  1  0  0  0  0
  6 29  1  0  0  0  0
  7  8  1  0  0  0  0
  7 25  1  0  0  0  0
  7 42  1  0  0  0  0
  8 26  2  0  0  0  0
  9 10  1  0  0  0  0
  9 11  1  0  0  0  0
  9 28  1  0  0  0  0
 10 18  2  0  0  0  0
 10 19  1  0  0  0  0
 11 30  1  0  0  0  0
 11 31  1  0  0  0  0
 11 32  1  0  0  0  0
 12 13  1  0  0  0  0
 12 16  2  0  0  0  0
 12 17  1  0  0  0  0
 14 15  2  0  0  0  0
 14 20  1  0  0  0  0
 14 21  1  0  0  0  0
 15 16  1  0  0  0  0
 16 33  1  0  0  0  0
 17 20  2  0  0  0  0
 17 34  1  0  0  0  0
 18 22  1  0  0  0  0
 18 35  1  0  0  0  0
 19 23  2  0  0  0  0
 19 36  1  0  0  0  0
 20 37  1  0  0  0  0
 21 25  2  0  0  0  0
 21 26  1  0  0  0  0
 22 24  2  0  0  0  0
 22 38  1  0  0  0  0
 23 24  1  0  0  0  0
 23 39  1  0  0  0  0
 25 40  1  0  0  0  0
 26 41  1  0  0  0  0
 27 43  1  0  0  0  0
M  END
> <PUBCHEM_COMPOUND_CID>
118663000

> <PUBCHEM_CONFORMER_RMSD>
0.8

> <PUBCHEM_CONFORMER_DIVERSEORDER>
2
31
51
35
32
59
29
47
15
27
49
64
53
62
50
60
21
72
1
8
56
22
26
66
10
58
69
45
37
67
54
40
46
34
20
24
25
61
13
33
68
42
39
4
41
44
65
23
28
52
12
38
70
3
36
18
6
63
43
30
16
14
48
71
9
7
55
19
57
5
17
11

> <PUBCHEM_MMFF94_PARTIAL_CHARGES>
37
1 -0.19
10 -0.14
12 0.09
13 0.54
14 0.05
15 0.08
16 -0.15
17 -0.15
18 -0.15
19 -0.15
2 -0.34
20 -0.15
21 -0.05
22 -0.15
23 -0.15
24 0.19
25 -0.3
26 0.14
27 0.96
29 0.37
3 -0.34
33 0.15
34 0.15
35 0.15
36 0.15
37 0.15
38 0.15
39 0.15
4 -0.36
40 0.15
41 0.15
42 0.27
5 -0.57
6 -0.73
7 0.3
8 -0.71
9 0.44

> <PUBCHEM_EFFECTIVE_ROTOR_COUNT>
7

> <PUBCHEM_PHARMACOPHORE_FEATURES>
8
1 4 acceptor
1 5 acceptor
1 6 donor
1 7 donor
1 8 acceptor
5 7 8 21 25 26 rings
6 10 18 19 22 23 24 rings
6 12 14 15 16 17 20 rings

> <PUBCHEM_HEAVY_ATOM_COUNT>
27

> <PUBCHEM_ATOM_DEF_STEREO_COUNT>
1

> <PUBCHEM_ATOM_UDEF_STEREO_COUNT>
0

> <PUBCHEM_BOND_DEF_STEREO_COUNT>
0

> <PUBCHEM_BOND_UDEF_STEREO_COUNT>
0

> <PUBCHEM_ISOTOPIC_ATOM_COUNT>
0

> <PUBCHEM_COMPONENT_COUNT>
1

> <PUBCHEM_CACTVS_TAUTO_COUNT>
9

> <PUBCHEM_CONFORMER_ID>
0712A75800000002

> <PUBCHEM_MMFF94_ENERGY>
71.1106

> <PUBCHEM_FEATURE_SELFOVERLAP>
40.597

> <PUBCHEM_SHAPE_FINGERPRINT>
10 15 18410852209592370992
10165383 225 18059583529433515934
10319926 262 18264200332296002362
10930396 42 18191565631538246329
11545043 162 18268157452789756238
11578080 2 17844814685976241265
11595378 159 18260541208715994818
12236239 1 17022620887923860454
12403259 415 18130793313104873150
12507560 40 18342741771724245654
12596602 18 17675923209721545416
12788726 201 18042425636621216493
12838862 33 18187925012319005581
12892183 10 18335699399695702966
13533116 47 15068340146745413694
13540713 4 18196384615194264751
13583140 156 17916582025486138390
14178342 30 18042124271630177590
14341114 328 17894905257546279596
15131766 46 16558739156921244481
17857418 61 16370445583072642571
19377110 9 17530971289096878100
21033648 29 18272645714877584480
2132832 1 17967542293579550389
21792934 111 18410301315971034057
23929065 36 18335132060818701909
3004659 81 17531826734633991471
376196 1 17547846361774714725
3886686 26 17321529502003717642
393628 194 15121224543117913210
4058900 60 11239185302855020951
5104073 3 18267589013688665698
5718773 13 13263214685908690216
57724786 102 16774083981732019658
8988823 20 16009032834700966886
9849439 229 17687455768295995349

> <PUBCHEM_SHAPE_MULTIPOLES>
507.14
16.44
2.75
1.82
4.58
2.37
0.73
0.35
9.09
-2.55
-0.87
1.98
-0.11
3.64

> <PUBCHEM_SHAPE_SELFOVERLAP>
1103.733

> <PUBCHEM_SHAPE_VOLUME>
277.4

> <PUBCHEM_COORDINATE_TYPE>
2
5
10

$$$$
90376025
  -OEChem-05102415153D

 46 48  0     1  0  0  0  0  0999 V2000
    6.4627   -2.4220   -1.5159 F   0  0  0  0  0  0  0  0  0  0  0  0
   -2.3640   -2.9340    1.0973 O   0  0  0  0  0  0  0  0  0  0  0  0
    1.3631    0.2074    2.1609 O   0  0  0  0  0  0  0  0  0  0  0  0
    1.8671    1.5089    0.3092 N   0  0  0  0  0  0  0  0  0  0  0  0
   -6.0902   -0.2035   -1.9561 N   0  0  0  0  0  0  0  0  0  0  0  0
   -6.6383    0.4382   -0.9102 N   0  0  0  0  0  0  0  0  0  0  0  0
   -2.4543   -0.5993    0.5746 C   0  0  0  0  0  0  0  0  0  0  0  0
    3.2647    1.7077    0.6191 C   0  0  1  0  0  0  0  0  0  0  0  0
   -3.0127    0.3899   -0.2350 C   0  0  0  0  0  0  0  0  0  0  0  0
   -3.2364   -1.8051    0.9881 C   0  0  2  0  0  0  0  0  0  0  0  0
   -0.3781    0.6341    0.6495 C   0  0  0  0  0  0  0  0  0  0  0  0
   -1.1369   -0.4773    1.0168 C   0  0  0  0  0  0  0  0  0  0  0  0
    4.1227    0.6004    0.0461 C   0  0  0  0  0  0  0  0  0  0  0  0
   -2.2537    1.5011   -0.6025 C   0  0  0  0  0  0  0  0  0  0  0  0
    0.9954    0.7622    1.1103 C   0  0  0  0  0  0  0  0  0  0  0  0
   -0.9365    1.6233   -0.1600 C   0  0  0  0  0  0  0  0  0  0  0  0
   -4.3684    0.2875   -0.7052 C   0  0  0  0  0  0  0  0  0  0  0  0
    3.7127    3.0937    0.1600 C   0  0  0  0  0  0  0  0  0  0  0  0
   -3.9619   -1.6057    2.3206 C   0  0  0  0  0  0  0  0  0  0  0  0
    3.7807    0.0119   -1.1715 C   0  0  0  0  0  0  0  0  0  0  0  0
    5.2554    0.1679    0.7359 C   0  0  0  0  0  0  0  0  0  0  0  0
   -4.7333   -0.3202   -1.8817 C   0  0  0  0  0  0  0  0  0  0  0  0
   -5.5816    0.7356   -0.1494 C   0  0  0  0  0  0  0  0  0  0  0  0
    4.5716   -1.0087   -1.6995 C   0  0  0  0  0  0  0  0  0  0  0  0
    6.0461   -0.8529    0.2081 C   0  0  0  0  0  0  0  0  0  0  0  0
    5.7042   -1.4411   -1.0096 C   0  0  0  0  0  0  0  0  0  0  0  0
    3.3530    1.6735    1.7129 H   0  0  0  0  0  0  0  0  0  0  0  0
   -3.9640   -2.0868    0.2213 H   0  0  0  0  0  0  0  0  0  0  0  0
   -0.6963   -1.2381    1.6565 H   0  0  0  0  0  0  0  0  0  0  0  0
    1.5463    1.8592   -0.5877 H   0  0  0  0  0  0  0  0  0  0  0  0
   -2.6750    2.2853   -1.2275 H   0  0  0  0  0  0  0  0  0  0  0  0
   -0.3918    2.5190   -0.4438 H   0  0  0  0  0  0  0  0  0  0  0  0
    3.6302    3.2005   -0.9279 H   0  0  0  0  0  0  0  0  0  0  0  0
    4.7558    3.2833    0.4353 H   0  0  0  0  0  0  0  0  0  0  0  0
    3.0930    3.8736    0.6161 H   0  0  0  0  0  0  0  0  0  0  0  0
   -3.2472   -1.4365    3.1344 H   0  0  0  0  0  0  0  0  0  0  0  0
   -4.5283   -2.5054    2.5844 H   0  0  0  0  0  0  0  0  0  0  0  0
   -4.6518   -0.7578    2.2899 H   0  0  0  0  0  0  0  0  0  0  0  0
    2.9137    0.3369   -1.7396 H   0  0  0  0  0  0  0  0  0  0  0  0
    5.5336    0.6192    1.6846 H   0  0  0  0  0  0  0  0  0  0  0  0
   -4.1673   -0.8158   -2.6583 H   0  0  0  0  0  0  0  0  0  0  0  0
   -5.7434    1.2673    0.7778 H   0  0  0  0  0  0  0  0  0  0  0  0
   -2.9047   -3.6993    1.3575 H   0  0  0  0  0  0  0  0  0  0  0  0
    4.3077   -1.4650   -2.6490 H   0  0  0  0  0  0  0  0  0  0  0  0
    6.9280   -1.1898    0.7448 H   0  0  0  0  0  0  0  0  0  0  0  0
   -6.7035   -0.5374   -2.6891 H   0  0  0  0  0  0  0  0  0  0  0  0
  1 26  1  0  0  0  0
  2 10  1  0  0  0  0
  2 43  1  0  0  0  0
  3 15  2  0  0  0  0
  4  8  1  0  0  0  0
  4 15  1  0  0  0  0
  4 30  1  0  0  0  0
  5  6  1  0  0  0  0
  5 22  1  0  0  0  0
  5 46  1  0  0  0  0
  6 23  2  0  0  0  0
  7  9  2  0  0  0  0
  7 10  1  0  0  0  0
  7 12  1  0  0  0  0
  8 13  1  0  0  0  0
  8 18  1  0  0  0  0
  8 27  1  0  0  0  0
  9 14  1  0  0  0  0
  9 17  1  0  0  0  0
 10 19  1  0  0  0  0
 10 28  1  0  0  0  0
 11 12  2  0  0  0  0
 11 15  1  0  0  0  0
 11 16  1  0  0  0  0
 12 29  1  0  0  0  0
 13 20  2  0  0  0  0
 13 21  1  0  0  0  0
 14 16  2  0  0  0  0
 14 31  1  0  0  0  0
 16 32  1  0  0  0  0
 17 22  2  0  0  0  0
 17 23  1  0  0  0  0
 18 33  1  0  0  0  0
 18 34  1  0  0  0  0
 18 35  1  0  0  0  0
 19 36  1  0  0  0  0
 19 37  1  0  0  0  0
 19 38  1  0  0  0  0
 20 24  1  0  0  0  0
 20 39  1  0  0  0  0
 21 25  2  0  0  0  0
 21 40  1  0  0  0  0
 22 41  1  0  0  0  0
 23 42  1  0  0  0  0
 24 26  2  0  0  0  0
 24 44  1  0  0  0  0
 25 26  1  0  0  0  0
 25 45  1  0  0  0  0
M  END
> <PUBCHEM_COMPOUND_CID>
90376025

> <PUBCHEM_CONFORMER_RMSD>
0.8

> <PUBCHEM_CONFORMER_DIVERSEORDER>
2
16
26
35
33
30
41
27
45
19
32
11
47
28
43
29
25
46
20
24
40
44
23
14
34
21
49
15
6
48
37
39
13
42
10
38
18
22
7
17
3
31
5
36
4
12
8
1
9

> <PUBCHEM_MMFF94_PARTIAL_CHARGES>
36
1 -0.19
10 0.42
11 0.09
12 -0.15
13 -0.14
14 -0.15
15 0.54
16 -0.15
17 -0.05
2 -0.68
20 -0.15
21 -0.15
22 -0.3
23 0.14
24 -0.15
25 -0.15
26 0.19
29 0.15
3 -0.57
30 0.37
31 0.15
32 0.15
39 0.15
4 -0.73
40 0.15
41 0.15
42 0.15
43 0.4
44 0.15
45 0.15
46 0.27
5 0.3
6 -0.71
7 -0.14
8 0.44
9 0.05

> <PUBCHEM_EFFECTIVE_ROTOR_COUNT>
6

> <PUBCHEM_PHARMACOPHORE_FEATURES>
9
1 2 acceptor
1 2 donor
1 3 acceptor
1 4 donor
1 5 donor
1 6 acceptor
5 5 6 17 22 23 rings
6 13 20 21 24 25 26 rings
6 7 9 11 12 14 16 rings

> <PUBCHEM_HEAVY_ATOM_COUNT>
26

> <PUBCHEM_ATOM_DEF_STEREO_COUNT>
1

> <PUBCHEM_ATOM_UDEF_STEREO_COUNT>
1

> <PUBCHEM_BOND_DEF_STEREO_COUNT>
0

> <PUBCHEM_BOND_UDEF_STEREO_COUNT>
0

> <PUBCHEM_ISOTOPIC_ATOM_COUNT>
0

> <PUBCHEM_COMPONENT_COUNT>
1

> <PUBCHEM_CACTVS_TAUTO_COUNT>
7

> <PUBCHEM_CONFORMER_ID>
0563075900000002

> <PUBCHEM_MMFF94_ENERGY>
65.7515

> <PUBCHEM_FEATURE_SELFOVERLAP>
45.672

> <PUBCHEM_SHAPE_FINGERPRINT>
10670039 82 16878500125181142676
10835480 77 18337105791274734768
11443803 9 16270823122086479499
11796584 16 18260828224453991762
11991303 11 17022905674959167179
12166972 35 17704070673402156996
12236239 1 15985104110835871345
12633046 712 17916034640520552267
12643181 29 18259701194828461754
12760667 363 18131076991484027096
13533116 47 17632572764994890616
13540713 4 17825664719441223185
13782708 43 18272090560638419859
13914758 101 16845297108016847465
14341114 328 14117511027113196962
15183329 4 18259981548485982824
15188451 53 14908177538695124783
15475509 8 18409730621743665845
15510800 12 18201731626255952046
17857418 61 16702018694801048565
19784866 240 17060619988325938269
19958102 18 18114457864540401678
20028762 73 16917068811846832718
20567600 247 17489295399977901015
20645477 70 18201996647122851756
21307412 95 18410018714663476151
21315764 119 17531246110995472838
21781051 124 17603879909435090363
22061861 79 18413389851683920892
2215653 11 18410573985399390588
22393880 68 18113898303448117562
22849339 104 18040437741348010011
2303208 19 18041570233928801785
23559900 14 18262234525326916152
23569943 247 18129943361037894167
29717793 49 18342734122245241572
3004659 81 17989485221560073572
32027 91 18412548704410428498
3298306 158 18333731308178821786
34797466 226 18115025337178905101
4015057 19 18200587116081462929
404807 14 16983238383077712247
439807 62 17273964917619102439
44062 13 17968099767270138491
5104073 3 14332843876595777043
531348 171 17917711271710593749
5718773 13 18058448695789547558
59755656 215 18187079516633170282
59755656 520 13695586650524883257
6695519 79 17193486330958186880
8988823 20 16702012106896483192

> <PUBCHEM_SHAPE_MULTIPOLES>
501.11
16.7
2.31
1.8
3.73
0.15
0.08
4.57
7.66
1.65
-0.41
-0.86
0.78
2.95

> <PUBCHEM_SHAPE_SELFOVERLAP>
1087.292

> <PUBCHEM_SHAPE_VOLUME>
276.3

> <PUBCHEM_COORDINATE_TYPE>
2
5
10

$$$$
118662918
  -OEChem-05102415153D

 46 48  0     1  0  0  0  0  0999 V2000
    4.8056   -0.8897   -1.9788 F   0  0  0  0  0  0  0  0  0  0  0  0
    3.2294    0.8206    2.1600 F   0  0  0  0  0  0  0  0  0  0  0  0
   -1.3942    2.5969    0.4760 O   0  0  0  0  0  0  0  0  0  0  0  0
    1.0191   -2.9876   -0.6369 O   0  0  0  0  0  0  0  0  0  0  0  0
    1.7445   -0.9938    0.2986 N   0  0  0  0  0  0  0  0  0  0  0  0
   -6.5515    0.6131    0.8380 N   0  0  0  0  0  0  0  0  0  0  0  0
   -6.7513    0.5874   -0.4907 N   0  0  0  0  0  0  0  0  0  0  0  0
   -2.2107    0.4245   -0.1124 C   0  0  0  0  0  0  0  0  0  0  0  0
    3.1554   -1.3069    0.2878 C   0  0  1  0  0  0  0  0  0  0  0  0
   -3.2576   -0.4914   -0.0081 C   0  0  0  0  0  0  0  0  0  0  0  0
   -2.4631    1.8975   -0.1687 C   0  0  2  0  0  0  0  0  0  0  0  0
   -0.6199   -1.3940   -0.1147 C   0  0  0  0  0  0  0  0  0  0  0  0
   -0.8918   -0.0268   -0.1657 C   0  0  0  0  0  0  0  0  0  0  0  0
    3.9978   -0.0644    0.0953 C   0  0  0  0  0  0  0  0  0  0  0  0
    0.7548   -1.8653   -0.1704 C   0  0  0  0  0  0  0  0  0  0  0  0
   -2.9856   -1.8587    0.0432 C   0  0  0  0  0  0  0  0  0  0  0  0
   -1.6668   -2.3099   -0.0104 C   0  0  0  0  0  0  0  0  0  0  0  0
   -4.6262   -0.0521    0.0497 C   0  0  0  0  0  0  0  0  0  0  0  0
    3.5316   -2.0804    1.5499 C   0  0  0  0  0  0  0  0  0  0  0  0
   -2.6035    2.4146   -1.6020 C   0  0  0  0  0  0  0  0  0  0  0  0
    4.7875    0.0728   -1.0464 C   0  0  0  0  0  0  0  0  0  0  0  0
    3.9852    0.9432    1.0599 C   0  0  0  0  0  0  0  0  0  0  0  0
   -5.2949    0.2388    1.2138 C   0  0  0  0  0  0  0  0  0  0  0  0
   -5.5717    0.1803   -0.9669 C   0  0  0  0  0  0  0  0  0  0  0  0
    5.5643    1.2178   -1.2236 C   0  0  0  0  0  0  0  0  0  0  0  0
    4.7622    2.0880    0.8827 C   0  0  0  0  0  0  0  0  0  0  0  0
    5.5515    2.2255   -0.2593 C   0  0  0  0  0  0  0  0  0  0  0  0
    3.3265   -1.9853   -0.5572 H   0  0  0  0  0  0  0  0  0  0  0  0
   -3.3576    2.1676    0.4001 H   0  0  0  0  0  0  0  0  0  0  0  0
   -0.0883    0.6925   -0.2964 H   0  0  0  0  0  0  0  0  0  0  0  0
    1.4699   -0.1281    0.7518 H   0  0  0  0  0  0  0  0  0  0  0  0
   -3.7889   -2.5873    0.1255 H   0  0  0  0  0  0  0  0  0  0  0  0
   -1.4753   -3.3789    0.0352 H   0  0  0  0  0  0  0  0  0  0  0  0
    3.2890   -1.5309    2.4654 H   0  0  0  0  0  0  0  0  0  0  0  0
    2.9868   -3.0302    1.5975 H   0  0  0  0  0  0  0  0  0  0  0  0
    4.6031   -2.3083    1.5673 H   0  0  0  0  0  0  0  0  0  0  0  0
   -3.4159    1.9184   -2.1402 H   0  0  0  0  0  0  0  0  0  0  0  0
   -2.7951    3.4932   -1.6009 H   0  0  0  0  0  0  0  0  0  0  0  0
   -1.6759    2.2628   -2.1661 H   0  0  0  0  0  0  0  0  0  0  0  0
   -5.0016    0.2160    2.2542 H   0  0  0  0  0  0  0  0  0  0  0  0
   -5.4540    0.0706   -2.0358 H   0  0  0  0  0  0  0  0  0  0  0  0
    6.1788    1.3245   -2.1127 H   0  0  0  0  0  0  0  0  0  0  0  0
    4.7521    2.8724    1.6337 H   0  0  0  0  0  0  0  0  0  0  0  0
   -1.5943    3.5474    0.4291 H   0  0  0  0  0  0  0  0  0  0  0  0
    6.1562    3.1170   -0.3973 H   0  0  0  0  0  0  0  0  0  0  0  0
   -7.3193    0.8975    1.4333 H   0  0  0  0  0  0  0  0  0  0  0  0
  1 21  1  0  0  0  0
  2 22  1  0  0  0  0
  3 11  1  0  0  0  0
  3 44  1  0  0  0  0
  4 15  2  0  0  0  0
  5  9  1  0  0  0  0
  5 15  1  0  0  0  0
  5 31  1  0  0  0  0
  6  7  1  0  0  0  0
  6 23  1  0  0  0  0
  6 46  1  0  0  0  0
  7 24  2  0  0  0  0
  8 10  2  0  0  0  0
  8 11  1  0  0  0  0
  8 13  1  0  0  0  0
  9 14  1  0  0  0  0
  9 19  1  0  0  0  0
  9 28  1  0  0  0  0
 10 16  1  0  0  0  0
 10 18  1  0  0  0  0
 11 20  1  0  0  0  0
 11 29  1  0  0  0  0
 12 13  2  0  0  0  0
 12 15  1  0  0  0  0
 12 17  1  0  0  0  0
 13 30  1  0  0  0  0
 14 21  2  0  0  0  0
 14 22  1  0  0  0  0
 16 17  2  0  0  0  0
 16 32  1  0  0  0  0
 17 33  1  0  0  0  0
 18 23  2  0  0  0  0
 18 24  1  0  0  0  0
 19 34  1  0  0  0  0
 19 35  1  0  0  0  0
 19 36  1  0  0  0  0
 20 37  1  0  0  0  0
 20 38  1  0  0  0  0
 20 39  1  0  0  0  0
 21 25  1  0  0  0  0
 22 26  2  0  0  0  0
 23 40  1  0  0  0  0
 24 41  1  0  0  0  0
 25 27  2  0  0  0  0
 25 42  1  0  0  0  0
 26 27  1  0  0  0  0
 26 43  1  0  0  0  0
 27 45  1  0  0  0  0
M  END
> <PUBCHEM_COMPOUND_CID>
118662918

> <PUBCHEM_CONFORMER_RMSD>
0.8

> <PUBCHEM_CONFORMER_DIVERSEORDER>
5
58
49
12
26
50
19
42
29
17
9
65
66
36
14
38
37
48
32
63
60
56
55
27
51
44
11
35
54
57
15
46
62
16
64
7
53
23
31
61
24
20
28
59
21
18
47
45
39
1
40
25
52
10
8
43
22
34
6
30
3
13
41
33
4
2

> <PUBCHEM_MMFF94_PARTIAL_CHARGES>
36
1 -0.19
10 0.05
11 0.42
12 0.09
13 -0.15
14 -0.14
15 0.54
16 -0.15
17 -0.15
18 -0.05
2 -0.19
21 0.19
22 0.19
23 -0.3
24 0.14
25 -0.15
26 -0.15
27 -0.15
3 -0.68
30 0.15
31 0.37
32 0.15
33 0.15
4 -0.57
40 0.15
41 0.15
42 0.15
43 0.15
44 0.4
45 0.15
46 0.27
5 -0.73
6 0.3
7 -0.71
8 -0.14
9 0.44

> <PUBCHEM_EFFECTIVE_ROTOR_COUNT>
6

> <PUBCHEM_PHARMACOPHORE_FEATURES>
9
1 3 acceptor
1 3 donor
1 4 acceptor
1 5 donor
1 6 donor
1 7 acceptor
5 6 7 18 23 24 rings
6 14 21 22 25 26 27 rings
6 8 10 12 13 16 17 rings

> <PUBCHEM_HEAVY_ATOM_COUNT>
27

> <PUBCHEM_ATOM_DEF_STEREO_COUNT>
1

> <PUBCHEM_ATOM_UDEF_STEREO_COUNT>
1

> <PUBCHEM_BOND_DEF_STEREO_COUNT>
0

> <PUBCHEM_BOND_UDEF_STEREO_COUNT>
0

> <PUBCHEM_ISOTOPIC_ATOM_COUNT>
0

> <PUBCHEM_COMPONENT_COUNT>
1

> <PUBCHEM_CACTVS_TAUTO_COUNT>
9

> <PUBCHEM_CONFORMER_ID>
0712A70600000005

> <PUBCHEM_MMFF94_ENERGY>
65.3241

> <PUBCHEM_FEATURE_SELFOVERLAP>
45.672

> <PUBCHEM_SHAPE_FINGERPRINT>
10498660 4 18411135879133787376
10670039 82 18261403187473112228
10906281 52 18340498794174124115
11595378 159 17313374613418073748
11720765 8 17775013345933718742
12596602 18 16442784639191719569
13402501 40 18342458174785757504
13533116 47 17749667381197390490
14528608 73 18131066056465935159
14617045 38 18410294735047389056
14787075 74 18412257316654090003
14790565 3 18269839705912478377
14840074 17 18411418423541595973
15001296 14 17969790867883566396
15183329 4 14979967960071245507
15575132 122 18334574616701929613
21033648 29 18129095796375106914
21315763 87 13118000024036921360
21792934 111 18263066744149656801
221357 26 17918280831413026600
23559900 14 18273219733246512468
3472631 163 18341334495677460318
350125 39 18409164377518400474
4340502 62 16298104298197478706
5104073 3 18042402431024004905
53794403 172 18193559097754892212
59682541 52 16415483713950115301
7808743 9 18193553592096376624

> <PUBCHEM_SHAPE_MULTIPOLES>
514.42
15.68
2.81
1.34
4.46
0.16
0.08
-7.02
-0.26
-1.3
-0.17
-1.18
-0.22
0.26

> <PUBCHEM_SHAPE_SELFOVERLAP>
1120.26

> <PUBCHEM_SHAPE_VOLUME>
282.1

> <PUBCHEM_COORDINATE_TYPE>
2
5
10

$$$$
90385099
  -OEChem-05102415153D

 45 47  0     1  0  0  0  0  0999 V2000
   -2.9144   -1.6424    1.0870 O   0  0  0  0  0  0  0  0  0  0  0  0
    1.5988    0.1368   -2.2895 O   0  0  0  0  0  0  0  0  0  0  0  0
    1.8922   -0.8865   -0.2295 N   0  0  0  0  0  0  0  0  0  0  0  0
    2.9869   -3.5550   -0.1065 N   0  0  0  0  0  0  0  0  0  0  0  0
   -6.2718    1.3988    0.5499 N   0  0  0  0  0  0  0  0  0  0  0  0
   -6.6656    0.1965    0.0964 N   0  0  0  0  0  0  0  0  0  0  0  0
    3.3134   -1.1166   -0.3573 C   0  0  1  0  0  0  0  0  0  0  0  0
    4.0940    0.0880    0.1295 C   0  0  0  0  0  0  0  0  0  0  0  0
    3.7469   -2.4010    0.3678 C   0  0  0  0  0  0  0  0  0  0  0  0
   -0.2969   -0.0852   -0.9275 C   0  0  0  0  0  0  0  0  0  0  0  0
    1.1167   -0.2667   -1.2163 C   0  0  0  0  0  0  0  0  0  0  0  0
   -3.0082    0.2661   -0.3714 C   0  0  0  0  0  0  0  0  0  0  0  0
    3.6177    0.8401    1.2033 C   0  0  0  0  0  0  0  0  0  0  0  0
    5.2885    0.4443   -0.4965 C   0  0  0  0  0  0  0  0  0  0  0  0
   -2.3029   -0.7782    0.2272 C   0  0  0  0  0  0  0  0  0  0  0  0
   -0.9473   -0.9537   -0.0510 C   0  0  0  0  0  0  0  0  0  0  0  0
   -1.0023    0.9590   -1.5261 C   0  0  0  0  0  0  0  0  0  0  0  0
   -2.3578    1.1344   -1.2482 C   0  0  0  0  0  0  0  0  0  0  0  0
   -4.4056    0.4662   -0.0972 C   0  0  0  0  0  0  0  0  0  0  0  0
    4.3362    1.9487    1.6514 C   0  0  0  0  0  0  0  0  0  0  0  0
    6.0069    1.5529   -0.0485 C   0  0  0  0  0  0  0  0  0  0  0  0
    5.5308    2.3050    1.0256 C   0  0  0  0  0  0  0  0  0  0  0  0
   -4.9276    1.6099    0.4560 C   0  0  0  0  0  0  0  0  0  0  0  0
   -5.5214   -0.3687   -0.2976 C   0  0  0  0  0  0  0  0  0  0  0  0
   -2.9071   -1.2926    2.4690 C   0  0  0  0  0  0  0  0  0  0  0  0
    3.5176   -1.2384   -1.4301 H   0  0  0  0  0  0  0  0  0  0  0  0
    4.8169   -2.5833    0.2139 H   0  0  0  0  0  0  0  0  0  0  0  0
    3.5867   -2.3027    1.4481 H   0  0  0  0  0  0  0  0  0  0  0  0
    1.4753   -1.1129    0.6677 H   0  0  0  0  0  0  0  0  0  0  0  0
    2.6998    0.5790    1.7222 H   0  0  0  0  0  0  0  0  0  0  0  0
    5.6711   -0.1345   -1.3329 H   0  0  0  0  0  0  0  0  0  0  0  0
   -0.4366   -1.7959    0.4082 H   0  0  0  0  0  0  0  0  0  0  0  0
   -0.5131    1.6490   -2.2088 H   0  0  0  0  0  0  0  0  0  0  0  0
   -2.8890    1.9531   -1.7284 H   0  0  0  0  0  0  0  0  0  0  0  0
    3.3359   -4.3982    0.3471 H   0  0  0  0  0  0  0  0  0  0  0  0
    3.1449   -3.6809   -1.1055 H   0  0  0  0  0  0  0  0  0  0  0  0
    3.9677    2.5323    2.4900 H   0  0  0  0  0  0  0  0  0  0  0  0
    6.9374    1.8301   -0.5353 H   0  0  0  0  0  0  0  0  0  0  0  0
    6.0908    3.1674    1.3752 H   0  0  0  0  0  0  0  0  0  0  0  0
   -4.4799    2.5365    0.7881 H   0  0  0  0  0  0  0  0  0  0  0  0
   -5.5526   -1.3657   -0.7142 H   0  0  0  0  0  0  0  0  0  0  0  0
   -6.9762    2.0292    0.9121 H   0  0  0  0  0  0  0  0  0  0  0  0
   -1.8819   -1.2776    2.8523 H   0  0  0  0  0  0  0  0  0  0  0  0
   -3.3808   -0.3197    2.6319 H   0  0  0  0  0  0  0  0  0  0  0  0
   -3.4728   -2.0513    3.0167 H   0  0  0  0  0  0  0  0  0  0  0  0
  1 15  1  0  0  0  0
  1 25  1  0  0  0  0
  2 11  2  0  0  0  0
  3  7  1  0  0  0  0
  3 11  1  0  0  0  0
  3 29  1  0  0  0  0
  4  9  1  0  0  0  0
  4 35  1  0  0  0  0
  4 36  1  0  0  0  0
  5  6  1  0  0  0  0
  5 23  1  0  0  0  0
  5 42  1  0  0  0  0
  6 24  2  0  0  0  0
  7  8  1  0  0  0  0
  7  9  1  0  0  0  0
  7 26  1  0  0  0  0
  8 13  2  0  0  0  0
  8 14  1  0  0  0  0
  9 27  1  0  0  0  0
  9 28  1  0  0  0  0
 10 11  1  0  0  0  0
 10 16  2  0  0  0  0
 10 17  1  0  0  0  0
 12 15  2  0  0  0  0
 12 18  1  0  0  0  0
 12 19  1  0  0  0  0
 13 20  1  0  0  0  0
 13 30  1  0  0  0  0
 14 21  2  0  0  0  0
 14 31  1  0  0  0  0
 15 16  1  0  0  0  0
 16 32  1  0  0  0  0
 17 18  2  0  0  0  0
 17 33  1  0  0  0  0
 18 34  1  0  0  0  0
 19 23  2  0  0  0  0
 19 24  1  0  0  0  0
 20 22  2  0  0  0  0
 20 37  1  0  0  0  0
 21 22  1  0  0  0  0
 21 38  1  0  0  0  0
 22 39  1  0  0  0  0
 23 40  1  0  0  0  0
 24 41  1  0  0  0  0
 25 43  1  0  0  0  0
 25 44  1  0  0  0  0
 25 45  1  0  0  0  0
M  END
> <PUBCHEM_COMPOUND_CID>
90385099

> <PUBCHEM_CONFORMER_RMSD>
0.8

> <PUBCHEM_CONFORMER_DIVERSEORDER>
1
9
38
29
28
6
24
36
25
4
30
10
37
5
32
26
18
8
35
7
33
11
34
22
23
3
19
16
17
20
31
13
39
15
2
14
12
27
21

> <PUBCHEM_MMFF94_PARTIAL_CHARGES>
39
1 -0.36
10 0.09
11 0.54
12 0.05
13 -0.15
14 -0.15
15 0.08
16 -0.15
17 -0.15
18 -0.15
19 -0.05
2 -0.57
20 -0.15
21 -0.15
22 -0.15
23 -0.3
24 0.14
25 0.28
29 0.37
3 -0.73
30 0.15
31 0.15
32 0.15
33 0.15
34 0.15
35 0.36
36 0.36
37 0.15
38 0.15
39 0.15
4 -0.99
40 0.15
41 0.15
42 0.27
5 0.3
6 -0.71
7 0.44
8 -0.14
9 0.27

> <PUBCHEM_EFFECTIVE_ROTOR_COUNT>
7

> <PUBCHEM_PHARMACOPHORE_FEATURES>
10
1 1 acceptor
1 2 acceptor
1 3 donor
1 4 cation
1 4 donor
1 5 donor
1 6 acceptor
5 5 6 19 23 24 rings
6 10 12 15 16 17 18 rings
6 8 13 14 20 21 22 rings

> <PUBCHEM_HEAVY_ATOM_COUNT>
25

> <PUBCHEM_ATOM_DEF_STEREO_COUNT>
1

> <PUBCHEM_ATOM_UDEF_STEREO_COUNT>
0

> <PUBCHEM_BOND_DEF_STEREO_COUNT>
0

> <PUBCHEM_BOND_UDEF_STEREO_COUNT>
0

> <PUBCHEM_ISOTOPIC_ATOM_COUNT>
0

> <PUBCHEM_COMPONENT_COUNT>
1

> <PUBCHEM_CACTVS_TAUTO_COUNT>
7

> <PUBCHEM_CONFORMER_ID>
05632ACB00000001

> <PUBCHEM_MMFF94_ENERGY>
71.7536

> <PUBCHEM_FEATURE_SELFOVERLAP>
50.749

> <PUBCHEM_SHAPE_FINGERPRINT>
10165383 225 18408042936325298404
10670039 82 15051746278282410128
11828532 37 12462990178325296285
11991303 11 15697991977097474589
12403259 415 18188767236864197485
12553582 1 16225765203228737782
12596602 18 17632295726160116815
12616971 3 17631717293013065870
12633257 1 17677041456012802432
12730499 353 18411419510268684538
12788726 201 16370731383202876668
13533116 47 18338798901209468515
13583140 156 18201161056507924563
13955234 65 18339071589464008370
14251751 18 11169911688547259369
14341114 176 17967529065359651340
15142526 21 18128522963812720248
15183329 4 11455897961698665460
15575132 122 15769784541725215001
17857418 61 13840266991930385169
17980427 23 17895756334378622494
1813 80 15575001641089716103
21033648 29 18269265928425657816
21130935 74 18336271142112025499
21424621 283 18339368449234924857
21641784 216 14692579788710354987
21781051 124 14620225416690297957
21859007 373 16298929993086469877
22122407 14 17917719001913404968
23503953 91 17603874424455702775
23559900 14 18113911424678818654
29717793 49 8862941679914620589
3004659 81 11025797583325186788
3383291 50 17313396673093092587
34797466 226 17418382385134242053
4058900 60 16343438219441689415
4073 2 18336830882812201555
474 4 16774082877550884990
5104073 3 18042962077952389937
6442390 28 18265049305802267998
7226269 152 17967529069728569253

> <PUBCHEM_SHAPE_MULTIPOLES>
482.83
15.72
2.36
1.59
5.37
1.31
0.26
-7.35
3.87
-3.04
0.7
0.05
-0.09
1.51

> <PUBCHEM_SHAPE_SELFOVERLAP>
1044.574

> <PUBCHEM_SHAPE_VOLUME>
265.2

> <PUBCHEM_COORDINATE_TYPE>
2
5
10

$$$$
118662890
  -OEChem-05102415153D

 48 50  0     1  0  0  0  0  0999 V2000
    2.7596   -0.1738    2.3189 F   0  0  0  0  0  0  0  0  0  0  0  0
    4.2610    1.3096   -1.9337 F   0  0  0  0  0  0  0  0  0  0  0  0
    4.7124   -2.0710   -0.2356 O   0  0  0  0  0  0  0  0  0  0  0  0
    3.2004   -4.3708   -0.1786 O   0  0  0  0  0  0  0  0  0  0  0  0
    0.9772    0.8357   -2.1968 O   0  0  0  0  0  0  0  0  0  0  0  0
   -3.4179   -1.7687    0.7757 O   0  0  0  0  0  0  0  0  0  0  0  0
    1.3304   -0.5021   -0.3364 N   0  0  0  0  0  0  0  0  0  0  0  0
   -6.9606    1.1045    0.7220 N   0  0  0  0  0  0  0  0  0  0  0  0
   -7.2770   -0.0254    0.0667 N   0  0  0  0  0  0  0  0  0  0  0  0
    2.7658   -0.6173   -0.4840 C   0  0  2  0  0  0  0  0  0  0  0  0
    3.3067   -1.9778    0.0053 C   0  0  1  0  0  0  0  0  0  0  0  0
    3.4935    0.5402    0.1768 C   0  0  0  0  0  0  0  0  0  0  0  0
    2.6189   -3.1659   -0.6681 C   0  0  0  0  0  0  0  0  0  0  0  0
    0.5512    0.2257   -1.2196 C   0  0  0  0  0  0  0  0  0  0  0  0
    3.4459    0.6942    1.5624 C   0  0  0  0  0  0  0  0  0  0  0  0
    4.2101    1.4491   -0.6018 C   0  0  0  0  0  0  0  0  0  0  0  0
   -0.9021    0.2681   -0.9147 C   0  0  0  0  0  0  0  0  0  0  0  0
    4.1150    1.7571    2.1693 C   0  0  0  0  0  0  0  0  0  0  0  0
    4.8791    2.5122    0.0052 C   0  0  0  0  0  0  0  0  0  0  0  0
   -1.4972   -0.7755   -0.2057 C   0  0  0  0  0  0  0  0  0  0  0  0
   -3.6308    0.3502   -0.3391 C   0  0  0  0  0  0  0  0  0  0  0  0
   -1.6715    1.3528   -1.3358 C   0  0  0  0  0  0  0  0  0  0  0  0
   -2.8614   -0.7346    0.0822 C   0  0  0  0  0  0  0  0  0  0  0  0
    4.8313    2.6662    1.3906 C   0  0  0  0  0  0  0  0  0  0  0  0
   -3.0358    1.3937   -1.0483 C   0  0  0  0  0  0  0  0  0  0  0  0
   -5.0385    0.4135   -0.0516 C   0  0  0  0  0  0  0  0  0  0  0  0
   -5.6324    1.4119    0.6813 C   0  0  0  0  0  0  0  0  0  0  0  0
   -6.0988   -0.4430   -0.4037 C   0  0  0  0  0  0  0  0  0  0  0  0
   -3.4342   -1.6590    2.1970 C   0  0  0  0  0  0  0  0  0  0  0  0
    2.9777   -0.5704   -1.5608 H   0  0  0  0  0  0  0  0  0  0  0  0
    3.1751   -2.0876    1.0878 H   0  0  0  0  0  0  0  0  0  0  0  0
    0.9264   -0.8791    0.5147 H   0  0  0  0  0  0  0  0  0  0  0  0
    1.5462   -3.1885   -0.4555 H   0  0  0  0  0  0  0  0  0  0  0  0
    2.7757   -3.1408   -1.7514 H   0  0  0  0  0  0  0  0  0  0  0  0
    5.0063   -2.9421    0.0814 H   0  0  0  0  0  0  0  0  0  0  0  0
   -0.9336   -1.6494    0.1097 H   0  0  0  0  0  0  0  0  0  0  0  0
    4.0777    1.8768    3.2480 H   0  0  0  0  0  0  0  0  0  0  0  0
    5.4367    3.2197   -0.6013 H   0  0  0  0  0  0  0  0  0  0  0  0
   -1.2256    2.1773   -1.8858 H   0  0  0  0  0  0  0  0  0  0  0  0
   -3.6173    2.2473   -1.3891 H   0  0  0  0  0  0  0  0  0  0  0  0
    5.3520    3.4939    1.8632 H   0  0  0  0  0  0  0  0  0  0  0  0
    2.7503   -5.1066   -0.6276 H   0  0  0  0  0  0  0  0  0  0  0  0
   -5.2448    2.2947    1.1708 H   0  0  0  0  0  0  0  0  0  0  0  0
   -6.0664   -1.3548   -0.9836 H   0  0  0  0  0  0  0  0  0  0  0  0
   -7.7040    1.6192    1.1775 H   0  0  0  0  0  0  0  0  0  0  0  0
   -3.9516   -2.5333    2.6015 H   0  0  0  0  0  0  0  0  0  0  0  0
   -3.9685   -0.7591    2.5169 H   0  0  0  0  0  0  0  0  0  0  0  0
   -2.4124   -1.6460    2.5894 H   0  0  0  0  0  0  0  0  0  0  0  0
  1 15  1  0  0  0  0
  2 16  1  0  0  0  0
  3 11  1  0  0  0  0
  3 35  1  0  0  0  0
  4 13  1  0  0  0  0
  4 42  1  0  0  0  0
  5 14  2  0  0  0  0
  6 23  1  0  0  0  0
  6 29  1  0  0  0  0
  7 10  1  0  0  0  0
  7 14  1  0  0  0  0
  7 32  1  0  0  0  0
  8  9  1  0  0  0  0
  8 27  1  0  0  0  0
  8 45  1  0  0  0  0
  9 28  2  0  0  0  0
 10 11  1  0  0  0  0
 10 12  1  0  0  0  0
 10 30  1  0  0  0  0
 11 13  1  0  0  0  0
 11 31  1  0  0  0  0
 12 15  2  0  0  0  0
 12 16  1  0  0  0  0
 13 33  1  0  0  0  0
 13 34  1  0  0  0  0
 14 17  1  0  0  0  0
 15 18  1  0  0  0  0
 16 19  2  0  0  0  0
 17 20  2  0  0  0  0
 17 22  1  0  0  0  0
 18 24  2  0  0  0  0
 18 37  1  0  0  0  0
 19 24  1  0  0  0  0
 19 38  1  0  0  0  0
 20 23  1  0  0  0  0
 20 36  1  0  0  0  0
 21 23  2  0  0  0  0
 21 25  1  0  0  0  0
 21 26  1  0  0  0  0
 22 25  2  0  0  0  0
 22 39  1  0  0  0  0
 24 41  1  0  0  0  0
 25 40  1  0  0  0  0
 26 27  2  0  0  0  0
 26 28  1  0  0  0  0
 27 43  1  0  0  0  0
 28 44  1  0  0  0  0
 29 46  1  0  0  0  0
 29 47  1  0  0  0  0
 29 48  1  0  0  0  0
M  END
> <PUBCHEM_COMPOUND_CID>
118662890

> <PUBCHEM_CONFORMER_RMSD>
1

> <PUBCHEM_CONFORMER_DIVERSEORDER>
1
16
36
30
21
13
28
24
11
26
5
35
32
31
23
29
18
34
6
15
20
33
19
25
22
14
7
2
10
9
8
27
12
17
3
4

> <PUBCHEM_MMFF94_PARTIAL_CHARGES>
41
1 -0.19
10 0.44
11 0.28
12 -0.14
13 0.28
14 0.54
15 0.19
16 0.19
17 0.09
18 -0.15
19 -0.15
2 -0.19
20 -0.15
21 0.05
22 -0.15
23 0.08
24 -0.15
25 -0.15
26 -0.05
27 -0.3
28 0.14
29 0.28
3 -0.68
32 0.37
35 0.4
36 0.15
37 0.15
38 0.15
39 0.15
4 -0.68
40 0.15
41 0.15
42 0.4
43 0.15
44 0.15
45 0.27
5 -0.57
6 -0.36
7 -0.73
8 0.3
9 -0.71

> <PUBCHEM_EFFECTIVE_ROTOR_COUNT>
8

> <PUBCHEM_PHARMACOPHORE_FEATURES>
12
1 3 acceptor
1 3 donor
1 4 acceptor
1 4 donor
1 5 acceptor
1 6 acceptor
1 7 donor
1 8 donor
1 9 acceptor
5 8 9 26 27 28 rings
6 12 15 16 18 19 24 rings
6 17 20 21 22 23 25 rings

> <PUBCHEM_HEAVY_ATOM_COUNT>
29

> <PUBCHEM_ATOM_DEF_STEREO_COUNT>
1

> <PUBCHEM_ATOM_UDEF_STEREO_COUNT>
1

> <PUBCHEM_BOND_DEF_STEREO_COUNT>
0

> <PUBCHEM_BOND_UDEF_STEREO_COUNT>
0

> <PUBCHEM_ISOTOPIC_ATOM_COUNT>
0

> <PUBCHEM_COMPONENT_COUNT>
1

> <PUBCHEM_CACTVS_TAUTO_COUNT>
9

> <PUBCHEM_CONFORMER_ID>
0712A6EA00000001

> <PUBCHEM_MMFF94_ENERGY>
79.2973

> <PUBCHEM_FEATURE_SELFOVERLAP>
60.909

> <PUBCHEM_SHAPE_FINGERPRINT>
10165383 225 18411140277634323852
10554248 39 17416960630953902901
10816530 23 18265897049924170010
11828532 37 11743542332813269349
11991303 11 14620506861935534429
12616971 3 17203314586035785757
13533116 47 18341052917574230223
13583140 156 17988362688744216523
13673619 4 18117846495390756078
13878862 14 18127953248859033549
13955234 65 18340481180344685074
14341114 328 17531241811786002376
14565420 104 18200583817678247160
15183329 4 12391524108621429161
15537594 2 15719397234848224531
17349148 13 14129050422462445480
1813 80 16153432735894994295
1979834 28 18334010610049338436
21033648 29 18127118891891458040
21049683 271 18264775360040358334
21120745 212 17338172802057649302
21130935 74 18410863132090291803
21304303 282 12400863421250530422
21792934 111 18261385599661480765
21859007 373 16805865322562866373
22061861 79 8070033263786346385
22122407 14 17703800214626320857
22149856 69 18262817215698479889
23559900 14 18260276234824502150
239999 70 17603872191452490982
29717793 49 7853858282554361429
3178227 256 18340762664359742794
3383291 50 17603876658783541019
3680242 22 16732976548477329201
394071 54 17968101944829334677
5104073 3 18408042909780242635
57527585 21 16403630193436974260
6442390 28 18196369437096208374
6823239 73 17968385572011538606
9841814 1 16443351983113066796

> <PUBCHEM_SHAPE_MULTIPOLES>
543.84
15.77
3.07
1.77
19.34
2.89
0.53
-5.51
3.76
-5.45
0.3
-1.09
-0.5
1.55

> <PUBCHEM_SHAPE_SELFOVERLAP>
1178.553

> <PUBCHEM_SHAPE_VOLUME>
298.8

> <PUBCHEM_COORDINATE_TYPE>
2
5
10

$$$$
90385166
  -OEChem-05102415153D

 46 48  0     1  0  0  0  0  0999 V2000
    4.4780    1.3745   -1.5852 F   0  0  0  0  0  0  0  0  0  0  0  0
    3.1409   -1.4806    1.9645 F   0  0  0  0  0  0  0  0  0  0  0  0
   -3.5384    2.1276   -0.3856 O   0  0  0  0  0  0  0  0  0  0  0  0
    1.1565    0.9297   -1.8671 O   0  0  0  0  0  0  0  0  0  0  0  0
    1.6313   -0.9265   -0.5610 N   0  0  0  0  0  0  0  0  0  0  0  0
   -6.5074   -0.7503    1.5426 N   0  0  0  0  0  0  0  0  0  0  0  0
   -6.9941   -0.3063    0.3712 N   0  0  0  0  0  0  0  0  0  0  0  0
    3.0534   -0.9550   -0.8210 C   0  0  2  0  0  0  0  0  0  0  0  0
    3.6014   -2.3924   -0.8205 C   0  0  0  0  0  0  0  0  0  0  0  0
    3.7924   -0.0742    0.1659 C   0  0  0  0  0  0  0  0  0  0  0  0
    2.8701   -3.2968   -1.8049 C   0  0  0  0  0  0  0  0  0  0  0  0
    0.7943    0.0282   -1.1156 C   0  0  0  0  0  0  0  0  0  0  0  0
   -0.6371   -0.0633   -0.7290 C   0  0  0  0  0  0  0  0  0  0  0  0
    4.4731    1.0575   -0.2831 C   0  0  0  0  0  0  0  0  0  0  0  0
    3.7926   -0.3955    1.5233 C   0  0  0  0  0  0  0  0  0  0  0  0
   -3.3262   -0.2366   -0.0065 C   0  0  0  0  0  0  0  0  0  0  0  0
   -1.4359    1.0803   -0.7343 C   0  0  0  0  0  0  0  0  0  0  0  0
   -2.7805    0.9937   -0.3730 C   0  0  0  0  0  0  0  0  0  0  0  0
   -1.1830   -1.2936   -0.3624 C   0  0  0  0  0  0  0  0  0  0  0  0
    5.1539    1.8682    0.6254 C   0  0  0  0  0  0  0  0  0  0  0  0
    4.4735    0.4152    2.4318 C   0  0  0  0  0  0  0  0  0  0  0  0
   -2.5274   -1.3802   -0.0010 C   0  0  0  0  0  0  0  0  0  0  0  0
   -4.7102   -0.3487    0.3678 C   0  0  0  0  0  0  0  0  0  0  0  0
    5.1539    1.5471    1.9828 C   0  0  0  0  0  0  0  0  0  0  0  0
   -5.1451   -0.7948    1.5921 C   0  0  0  0  0  0  0  0  0  0  0  0
   -5.8916   -0.0625   -0.3424 C   0  0  0  0  0  0  0  0  0  0  0  0
   -2.8884    3.3351   -0.7748 C   0  0  0  0  0  0  0  0  0  0  0  0
    3.2014   -0.5564   -1.8330 H   0  0  0  0  0  0  0  0  0  0  0  0
    3.5226   -2.8553    0.1692 H   0  0  0  0  0  0  0  0  0  0  0  0
    4.6689   -2.3770   -1.0742 H   0  0  0  0  0  0  0  0  0  0  0  0
    1.2809   -1.5666    0.1442 H   0  0  0  0  0  0  0  0  0  0  0  0
    2.9070   -2.8844   -2.8182 H   0  0  0  0  0  0  0  0  0  0  0  0
    3.3402   -4.2854   -1.8257 H   0  0  0  0  0  0  0  0  0  0  0  0
    1.8213   -3.4344   -1.5245 H   0  0  0  0  0  0  0  0  0  0  0  0
   -0.9576    2.0103   -1.0210 H   0  0  0  0  0  0  0  0  0  0  0  0
   -0.6042   -2.2125   -0.3758 H   0  0  0  0  0  0  0  0  0  0  0  0
    5.6835    2.7494    0.2756 H   0  0  0  0  0  0  0  0  0  0  0  0
    4.4733    0.1649    3.4886 H   0  0  0  0  0  0  0  0  0  0  0  0
   -2.9354   -2.3512    0.2705 H   0  0  0  0  0  0  0  0  0  0  0  0
    5.6838    2.1783    2.6901 H   0  0  0  0  0  0  0  0  0  0  0  0
   -4.6259   -1.1323    2.4785 H   0  0  0  0  0  0  0  0  0  0  0  0
   -5.9995    0.3130   -1.3504 H   0  0  0  0  0  0  0  0  0  0  0  0
   -7.1644   -1.0069    2.2688 H   0  0  0  0  0  0  0  0  0  0  0  0
   -2.0940    3.6125   -0.0735 H   0  0  0  0  0  0  0  0  0  0  0  0
   -2.5385    3.2917   -1.8120 H   0  0  0  0  0  0  0  0  0  0  0  0
   -3.6389    4.1314   -0.7299 H   0  0  0  0  0  0  0  0  0  0  0  0
  1 14  1  0  0  0  0
  2 15  1  0  0  0  0
  3 18  1  0  0  0  0
  3 27  1  0  0  0  0
  4 12  2  0  0  0  0
  5  8  1  0  0  0  0
  5 12  1  0  0  0  0
  5 31  1  0  0  0  0
  6  7  1  0  0  0  0
  6 25  1  0  0  0  0
  6 43  1  0  0  0  0
  7 26  2  0  0  0  0
  8  9  1  0  0  0  0
  8 10  1  0  0  0  0
  8 28  1  0  0  0  0
  9 11  1  0  0  0  0
  9 29  1  0  0  0  0
  9 30  1  0  0  0  0
 10 14  2  0  0  0  0
 10 15  1  0  0  0  0
 11 32  1  0  0  0  0
 11 33  1  0  0  0  0
 11 34  1  0  0  0  0
 12 13  1  0  0  0  0
 13 17  2  0  0  0  0
 13 19  1  0  0  0  0
 14 20  1  0  0  0  0
 15 21  2  0  0  0  0
 16 18  2  0  0  0  0
 16 22  1  0  0  0  0
 16 23  1  0  0  0  0
 17 18  1  0  0  0  0
 17 35  1  0  0  0  0
 19 22  2  0  0  0  0
 19 36  1  0  0  0  0
 20 24  2  0  0  0  0
 20 37  1  0  0  0  0
 21 24  1  0  0  0  0
 21 38  1  0  0  0  0
 22 39  1  0  0  0  0
 23 25  2  0  0  0  0
 23 26  1  0  0  0  0
 24 40  1  0  0  0  0
 25 41  1  0  0  0  0
 26 42  1  0  0  0  0
 27 44  1  0  0  0  0
 27 45  1  0  0  0  0
 27 46  1  0  0  0  0
M  END
> <PUBCHEM_COMPOUND_CID>
90385166

> <PUBCHEM_CONFORMER_RMSD>
0.8

> <PUBCHEM_CONFORMER_DIVERSEORDER>
3
33
25
47
15
8
45
44
30
51
17
53
35
23
34
13
29
43
18
16
49
11
40
32
48
7
20
26
6
37
21
4
19
24
27
14
10
41
12
31
36
42
9
46
50
28
52
22
38
39
2
5
1

> <PUBCHEM_MMFF94_PARTIAL_CHARGES>
35
1 -0.19
10 -0.14
12 0.54
13 0.09
14 0.19
15 0.19
16 0.05
17 -0.15
18 0.08
19 -0.15
2 -0.19
20 -0.15
21 -0.15
22 -0.15
23 -0.05
24 -0.15
25 -0.3
26 0.14
27 0.28
3 -0.36
31 0.37
35 0.15
36 0.15
37 0.15
38 0.15
39 0.15
4 -0.57
40 0.15
41 0.15
42 0.15
43 0.27
5 -0.73
6 0.3
7 -0.71
8 0.44

> <PUBCHEM_EFFECTIVE_ROTOR_COUNT>
7

> <PUBCHEM_PHARMACOPHORE_FEATURES>
9
1 11 hydrophobe
1 3 acceptor
1 4 acceptor
1 5 donor
1 6 donor
1 7 acceptor
5 6 7 23 25 26 rings
6 10 14 15 20 21 24 rings
6 13 16 17 18 19 22 rings

> <PUBCHEM_HEAVY_ATOM_COUNT>
27

> <PUBCHEM_ATOM_DEF_STEREO_COUNT>
1

> <PUBCHEM_ATOM_UDEF_STEREO_COUNT>
0

> <PUBCHEM_BOND_DEF_STEREO_COUNT>
0

> <PUBCHEM_BOND_UDEF_STEREO_COUNT>
0

> <PUBCHEM_ISOTOPIC_ATOM_COUNT>
0

> <PUBCHEM_COMPONENT_COUNT>
1

> <PUBCHEM_CACTVS_TAUTO_COUNT>
7

> <PUBCHEM_CONFORMER_ID>
05632B0E00000003

> <PUBCHEM_MMFF94_ENERGY>
70.0158

> <PUBCHEM_FEATURE_SELFOVERLAP>
45.671

> <PUBCHEM_SHAPE_FINGERPRINT>
10 15 18335416919807479824
10165383 225 18202288043922084452
10319926 262 18190449481518408074
10554248 39 16056040105031307413
11135609 201 17845077632190048560
11475781 23 17823401714131313717
11545043 162 18194968448064165726
11595378 159 18186792569804970348
12342043 65 18124612898079276791
12403259 415 18201721704406055757
12596602 18 17385438838785462041
12730499 353 18202850959041390262
12892183 10 18260540087407699218
13533116 47 17988371372894061839
13583140 156 17916293961865902796
13955234 65 18131352969341202318
14251740 57 17168138993192793122
14341114 328 17968088768396749256
14528608 73 14764347158574990819
146900 427 17418093221617600770
15131766 46 16916487264257764409
15183329 4 9367355850819141347
15419008 42 15793666973810943663
17349148 13 15574713573522477506
17844677 252 18129388115827670045
17857418 61 16370724850905317339
1813 80 16732989712567662629
19315092 285 14997377631998350712
19377110 9 17967253113046297137
1979834 28 18412546526629407148
21033648 29 18272360936949931425
21049683 271 18198919020204865318
21130935 74 18272100366576537163
21315764 119 11023839391243524113
21792934 111 18338514145568573761
22149856 69 18267888159004818619
23559900 14 18197215841647503078
239999 70 18114189631412133798
268830 7 16917067724681717123
29717793 49 12252179688676615679
3004659 81 14923946734534937586
3178227 256 18131633349465158334
3886686 26 16814015812473666018
394071 54 18271811275525376720
4058900 60 12318920023693305637
5104073 3 18337954467910688625
5252454 2 17489295421769293534
6823239 73 18263089829772894286
7808743 9 17912069858132514240
8988823 20 16081087117002598332

> <PUBCHEM_SHAPE_MULTIPOLES>
514.42
15.57
2.61
1.86
13.45
0.4
0.73
-2.53
6.93
-2.27
-1.14
-1.54
-0.22
2.4

> <PUBCHEM_SHAPE_SELFOVERLAP>
1116.91

> <PUBCHEM_SHAPE_VOLUME>
282.1

> <PUBCHEM_COORDINATE_TYPE>
2
5
10

$$$$
162648579
  -OEChem-05102415153D

 43 45  0     1  0  0  0  0  0999 V2000
    4.7787    1.9141   -0.7522 F   0  0  0  0  0  0  0  0  0  0  0  0
    3.0579   -2.3034    0.5861 F   0  0  0  0  0  0  0  0  0  0  0  0
   -3.1746   -1.6982   -1.0306 O   0  0  0  0  0  0  0  0  0  0  0  0
    1.3899    2.0548   -1.0554 O   0  0  0  0  0  0  0  0  0  0  0  0
    1.6517   -0.2493   -1.0697 N   0  0  0  0  0  0  0  0  0  0  0  0
   -6.4461    0.1816    1.5317 N   0  0  0  0  0  0  0  0  0  0  0  0
   -6.8709    0.0604    0.2625 N   0  0  0  0  0  0  0  0  0  0  0  0
    3.0646   -0.2558   -1.3739 C   0  0  1  0  0  0  0  0  0  0  0  0
    3.8986   -0.1963   -0.1132 C   0  0  0  0  0  0  0  0  0  0  0  0
    3.4163   -1.4623   -2.2420 C   0  0  0  0  0  0  0  0  0  0  0  0
   -0.5108    0.7607   -0.5969 C   0  0  0  0  0  0  0  0  0  0  0  0
    0.8962    0.9204   -0.9283 C   0  0  0  0  0  0  0  0  0  0  0  0
   -3.2115    0.4577    0.0330 C   0  0  0  0  0  0  0  0  0  0  0  0
   -2.5381   -0.5522   -0.6540 C   0  0  0  0  0  0  0  0  0  0  0  0
    4.7205    0.9046    0.1276 C   0  0  0  0  0  0  0  0  0  0  0  0
    3.8452   -1.2419    0.8087 C   0  0  0  0  0  0  0  0  0  0  0  0
   -1.1877   -0.4007   -0.9689 C   0  0  0  0  0  0  0  0  0  0  0  0
   -1.1842    1.7706    0.0902 C   0  0  0  0  0  0  0  0  0  0  0  0
   -2.5346    1.6192    0.4052 C   0  0  0  0  0  0  0  0  0  0  0  0
   -4.6040    0.3218    0.3662 C   0  0  0  0  0  0  0  0  0  0  0  0
    5.4891    0.9599    1.2903 C   0  0  0  0  0  0  0  0  0  0  0  0
    4.6138   -1.1864    1.9714 C   0  0  0  0  0  0  0  0  0  0  0  0
    5.4357   -0.0855    2.2122 C   0  0  0  0  0  0  0  0  0  0  0  0
   -5.0964    0.3405    1.6485 C   0  0  0  0  0  0  0  0  0  0  0  0
   -5.7412    0.1466   -0.4449 C   0  0  0  0  0  0  0  0  0  0  0  0
   -3.1582   -2.7811   -0.1035 C   0  0  0  0  0  0  0  0  0  0  0  0
    3.2665    0.6373   -1.9782 H   0  0  0  0  0  0  0  0  0  0  0  0
    1.2331   -1.1457   -0.8430 H   0  0  0  0  0  0  0  0  0  0  0  0
    3.1549   -2.4142   -1.7683 H   0  0  0  0  0  0  0  0  0  0  0  0
    4.4871   -1.4833   -2.4729 H   0  0  0  0  0  0  0  0  0  0  0  0
    2.8682   -1.4204   -3.1903 H   0  0  0  0  0  0  0  0  0  0  0  0
   -0.7022   -1.1932   -1.5321 H   0  0  0  0  0  0  0  0  0  0  0  0
   -0.6743    2.6819    0.3918 H   0  0  0  0  0  0  0  0  0  0  0  0
   -3.0411    2.4207    0.9380 H   0  0  0  0  0  0  0  0  0  0  0  0
    6.1289    1.8172    1.4777 H   0  0  0  0  0  0  0  0  0  0  0  0
    4.5718   -2.0004    2.6890 H   0  0  0  0  0  0  0  0  0  0  0  0
    6.0341   -0.0423    3.1175 H   0  0  0  0  0  0  0  0  0  0  0  0
   -4.6249    0.4475    2.6157 H   0  0  0  0  0  0  0  0  0  0  0  0
   -5.7982    0.0780   -1.5222 H   0  0  0  0  0  0  0  0  0  0  0  0
   -7.1342    0.1464    2.2734 H   0  0  0  0  0  0  0  0  0  0  0  0
   -3.7456   -3.6012   -0.5254 H   0  0  0  0  0  0  0  0  0  0  0  0
   -2.1331   -3.1314    0.0543 H   0  0  0  0  0  0  0  0  0  0  0  0
   -3.6041   -2.4887    0.8520 H   0  0  0  0  0  0  0  0  0  0  0  0
  1 15  1  0  0  0  0
  2 16  1  0  0  0  0
  3 14  1  0  0  0  0
  3 26  1  0  0  0  0
  4 12  2  0  0  0  0
  5  8  1  0  0  0  0
  5 12  1  0  0  0  0
  5 28  1  0  0  0  0
  6  7  1  0  0  0  0
  6 24  1  0  0  0  0
  6 40  1  0  0  0  0
  7 25  2  0  0  0  0
  8  9  1  0  0  0  0
  8 10  1  0  0  0  0
  8 27  1  0  0  0  0
  9 15  2  0  0  0  0
  9 16  1  0  0  0  0
 10 29  1  0  0  0  0
 10 30  1  0  0  0  0
 10 31  1  0  0  0  0
 11 12  1  0  0  0  0
 11 17  2  0  0  0  0
 11 18  1  0  0  0  0
 13 14  2  0  0  0  0
 13 19  1  0  0  0  0
 13 20  1  0  0  0  0
 14 17  1  0  0  0  0
 15 21  1  0  0  0  0
 16 22  2  0  0  0  0
 17 32  1  0  0  0  0
 18 19  2  0  0  0  0
 18 33  1  0  0  0  0
 19 34  1  0  0  0  0
 20 24  2  0  0  0  0
 20 25  1  0  0  0  0
 21 23  2  0  0  0  0
 21 35  1  0  0  0  0
 22 23  1  0  0  0  0
 22 36  1  0  0  0  0
 23 37  1  0  0  0  0
 24 38  1  0  0  0  0
 25 39  1  0  0  0  0
 26 41  1  0  0  0  0
 26 42  1  0  0  0  0
 26 43  1  0  0  0  0
M  END
> <PUBCHEM_COMPOUND_CID>
162648579

> <PUBCHEM_CONFORMER_RMSD>
0.8

> <PUBCHEM_CONFORMER_DIVERSEORDER>
2
11
33
17
18
14
31
12
39
23
22
7
13
37
34
30
26
16
21
9
36
6
20
24
35
28
10
25
4
32
3
15
5
1
38
27
8
29
19

> <PUBCHEM_MMFF94_PARTIAL_CHARGES>
35
1 -0.19
11 0.09
12 0.54
13 0.05
14 0.08
15 0.19
16 0.19
17 -0.15
18 -0.15
19 -0.15
2 -0.19
20 -0.05
21 -0.15
22 -0.15
23 -0.15
24 -0.3
25 0.14
26 0.28
28 0.37
3 -0.36
32 0.15
33 0.15
34 0.15
35 0.15
36 0.15
37 0.15
38 0.15
39 0.15
4 -0.57
40 0.27
5 -0.73
6 0.3
7 -0.71
8 0.44
9 -0.14

> <PUBCHEM_EFFECTIVE_ROTOR_COUNT>
6

> <PUBCHEM_PHARMACOPHORE_FEATURES>
8
1 3 acceptor
1 4 acceptor
1 5 donor
1 6 donor
1 7 acceptor
5 6 7 20 24 25 rings
6 11 13 14 17 18 19 rings
6 9 15 16 21 22 23 rings

> <PUBCHEM_HEAVY_ATOM_COUNT>
26

> <PUBCHEM_ATOM_DEF_STEREO_COUNT>
1

> <PUBCHEM_ATOM_UDEF_STEREO_COUNT>
0

> <PUBCHEM_BOND_DEF_STEREO_COUNT>
0

> <PUBCHEM_BOND_UDEF_STEREO_COUNT>
0

> <PUBCHEM_ISOTOPIC_ATOM_COUNT>
0

> <PUBCHEM_COMPONENT_COUNT>
1

> <PUBCHEM_CACTVS_TAUTO_COUNT>
-1

> <PUBCHEM_CONFORMER_ID>
09B1D20300000002

> <PUBCHEM_MMFF94_ENERGY>
71.6894

> <PUBCHEM_FEATURE_SELFOVERLAP>
40.597

> <PUBCHEM_SHAPE_FINGERPRINT>
10 15 18410014363961604393
10165383 225 17203891877766080068
10498660 4 11167645599688350046
10670039 82 10303823098246362514
10763959 59 14261356864071576122
11796584 16 16370447761053526769
11828532 37 11026101061445865281
12553582 1 18334017168158288614
12596602 18 18060140912370882443
12616971 3 17967807271370241118
12633257 1 18131059450742820248
12788726 201 18340498784941085857
13533116 47 17675924292116698504
13668630 136 15719391711715350392
13782708 43 15719400559759482345
14341114 176 18341889654881985706
14341114 328 18412259562800549464
14347332 77 12613020700414267429
14528608 73 12031782561287304065
146900 427 18336826515511053696
14931854 50 10375590456006741554
15183329 4 8646773321849351272
15419008 42 16952511508901609631
15510800 12 16299215827607992698
15537594 2 18113625594436360750
16992610 120 18044105773370697900
17349148 13 17385720301262009114
17857418 61 18113337526953447187
17980427 23 17845925338158865485
1813 80 17603875480854426733
19377110 9 18408885144139968120
1979834 28 18408889499210666242
19958102 18 13117997825361624753
20511986 3 18338781407875821655
20567600 234 17131827685977714993
20612939 158 12031794677875563612
21033648 29 16487248902694181682
21130935 74 17489317352405479647
21421861 104 18334579044770727716
21424621 283 16558205813285222179
21623969 137 17530965786742722795
21637258 2 16732986457657658819
21781051 124 8069732027834561257
21792934 111 18270961220483677281
21859007 373 18189043210658527093
22061861 79 14996282522199492379
22122407 14 14908183079224601491
221357 26 11314308351678810710
23366157 5 17974572699887643581
23559900 14 17917163735925066172
23569914 152 12111385047608322699
239999 70 18411709772848547678
29717793 49 14129061421604509237
3004659 81 15936416619646228738
3298306 158 12829480433282740064
3383291 50 18341617083658426903
34797466 226 13542467583451886205
3680242 22 18333447642705109674
392239 28 18264186128749165874
394071 54 18201445799944340880
4058900 60 12103582870195410373
46194498 28 13262404371007572014
5104073 3 18267309914229504073
542803 24 14692572104787138029
5718773 13 15503203493990330192
6823239 73 18201734933538382590
7226269 152 17917997157676824377
8988823 20 17894349995051964596
960060 61 11746944161696547464
9841814 1 18260557735787534732

> <PUBCHEM_SHAPE_MULTIPOLES>
493.84
16.02
2
1.78
8.42
0.82
0.46
-1.35
7.66
-0.25
-0.23
-2.21
0.21
-0.36

> <PUBCHEM_SHAPE_SELFOVERLAP>
1078.094

> <PUBCHEM_SHAPE_VOLUME>
270.3

> <PUBCHEM_COORDINATE_TYPE>
2
5
10

$$$$
162653727
  -OEChem-05102415153D

 43 45  0     1  0  0  0  0  0999 V2000
    4.9417    1.3595   -1.2724 F   0  0  0  0  0  0  0  0  0  0  0  0
   -3.0821   -1.9805   -0.3339 O   0  0  0  0  0  0  0  0  0  0  0  0
    1.5560    1.4363   -1.6503 O   0  0  0  0  0  0  0  0  0  0  0  0
    1.7721   -0.7234   -0.8339 N   0  0  0  0  0  0  0  0  0  0  0  0
   -6.3282    0.7485    1.3448 N   0  0  0  0  0  0  0  0  0  0  0  0
   -6.7491    0.1868    0.1987 N   0  0  0  0  0  0  0  0  0  0  0  0
    3.1860   -0.8623   -1.0990 C   0  0  1  0  0  0  0  0  0  0  0  0
    4.0149   -0.3683    0.0661 C   0  0  0  0  0  0  0  0  0  0  0  0
    3.5180   -2.3058   -1.4721 C   0  0  0  0  0  0  0  0  0  0  0  0
   -0.3722    0.4251   -0.7803 C   0  0  0  0  0  0  0  0  0  0  0  0
    1.0393    0.4316   -1.1305 C   0  0  0  0  0  0  0  0  0  0  0  0
   -3.0815    0.4138   -0.1152 C   0  0  0  0  0  0  0  0  0  0  0  0
   -2.4248   -0.7866   -0.3861 C   0  0  0  0  0  0  0  0  0  0  0  0
   -1.0702   -0.7809   -0.7187 C   0  0  0  0  0  0  0  0  0  0  0  0
    4.8583    0.7316   -0.0911 C   0  0  0  0  0  0  0  0  0  0  0  0
    3.9346   -1.0147    1.2995 C   0  0  0  0  0  0  0  0  0  0  0  0
   -1.0288    1.6255   -0.5092 C   0  0  0  0  0  0  0  0  0  0  0  0
   -2.3834    1.6199   -0.1767 C   0  0  0  0  0  0  0  0  0  0  0  0
   -4.4780    0.4300    0.2283 C   0  0  0  0  0  0  0  0  0  0  0  0
    5.6213    1.1849    0.9847 C   0  0  0  0  0  0  0  0  0  0  0  0
    4.6976   -0.5614    2.3755 C   0  0  0  0  0  0  0  0  0  0  0  0
    5.5409    0.5384    2.2182 C   0  0  0  0  0  0  0  0  0  0  0  0
   -4.9762    0.9160    1.4126 C   0  0  0  0  0  0  0  0  0  0  0  0
   -5.6145   -0.0056   -0.4792 C   0  0  0  0  0  0  0  0  0  0  0  0
   -3.0918   -2.6586    0.9201 C   0  0  0  0  0  0  0  0  0  0  0  0
    3.4085   -0.2491   -1.9810 H   0  0  0  0  0  0  0  0  0  0  0  0
    1.3342   -1.4720   -0.3067 H   0  0  0  0  0  0  0  0  0  0  0  0
    2.9612   -2.6075   -2.3666 H   0  0  0  0  0  0  0  0  0  0  0  0
    4.5866   -2.4228   -1.6834 H   0  0  0  0  0  0  0  0  0  0  0  0
    3.2525   -3.0111   -0.6767 H   0  0  0  0  0  0  0  0  0  0  0  0
   -0.5979   -1.7308   -0.9543 H   0  0  0  0  0  0  0  0  0  0  0  0
    3.2788   -1.8689    1.4443 H   0  0  0  0  0  0  0  0  0  0  0  0
   -0.5023    2.5756   -0.5488 H   0  0  0  0  0  0  0  0  0  0  0  0
   -2.8765    2.5677    0.0271 H   0  0  0  0  0  0  0  0  0  0  0  0
    6.2777    2.0413    0.8621 H   0  0  0  0  0  0  0  0  0  0  0  0
    4.6340   -1.0637    3.3364 H   0  0  0  0  0  0  0  0  0  0  0  0
    6.1347    0.8917    3.0561 H   0  0  0  0  0  0  0  0  0  0  0  0
   -4.5074    1.3551    2.2824 H   0  0  0  0  0  0  0  0  0  0  0  0
   -5.6675   -0.4554   -1.4608 H   0  0  0  0  0  0  0  0  0  0  0  0
   -7.0204    0.9934    2.0417 H   0  0  0  0  0  0  0  0  0  0  0  0
   -3.6933   -3.5655    0.8137 H   0  0  0  0  0  0  0  0  0  0  0  0
   -2.0747   -2.9460    1.2051 H   0  0  0  0  0  0  0  0  0  0  0  0
   -3.5365   -2.0352    1.7018 H   0  0  0  0  0  0  0  0  0  0  0  0
  1 15  1  0  0  0  0
  2 13  1  0  0  0  0
  2 25  1  0  0  0  0
  3 11  2  0  0  0  0
  4  7  1  0  0  0  0
  4 11  1  0  0  0  0
  4 27  1  0  0  0  0
  5  6  1  0  0  0  0
  5 23  1  0  0  0  0
  5 40  1  0  0  0  0
  6 24  2  0  0  0  0
  7  8  1  0  0  0  0
  7  9  1  0  0  0  0
  7 26  1  0  0  0  0
  8 15  1  0  0  0  0
  8 16  2  0  0  0  0
  9 28  1  0  0  0  0
  9 29  1  0  0  0  0
  9 30  1  0  0  0  0
 10 11  1  0  0  0  0
 10 14  2  0  0  0  0
 10 17  1  0  0  0  0
 12 13  2  0  0  0  0
 12 18  1  0  0  0  0
 12 19  1  0  0  0  0
 13 14  1  0  0  0  0
 14 31  1  0  0  0  0
 15 20  2  0  0  0  0
 16 21  1  0  0  0  0
 16 32  1  0  0  0  0
 17 18  2  0  0  0  0
 17 33  1  0  0  0  0
 18 34  1  0  0  0  0
 19 23  2  0  0  0  0
 19 24  1  0  0  0  0
 20 22  1  0  0  0  0
 20 35  1  0  0  0  0
 21 22  2  0  0  0  0
 21 36  1  0  0  0  0
 22 37  1  0  0  0  0
 23 38  1  0  0  0  0
 24 39  1  0  0  0  0
 25 41  1  0  0  0  0
 25 42  1  0  0  0  0
 25 43  1  0  0  0  0
M  END
> <PUBCHEM_COMPOUND_CID>
162653727

> <PUBCHEM_CONFORMER_RMSD>
0.8

> <PUBCHEM_CONFORMER_DIVERSEORDER>
1
53
63
54
68
39
31
66
13
61
27
25
8
70
64
21
75
4
52
43
40
32
41
18
69
3
35
58
30
24
28
59
44
71
65
46
47
34
14
49
23
26
73
60
20
5
62
15
67
22
55
74
11
36
2
6
19
38
7
72
56
48
51
45
10
12
16
29
9
37
50
57
33
17
42

> <PUBCHEM_MMFF94_PARTIAL_CHARGES>
35
1 -0.19
10 0.09
11 0.54
12 0.05
13 0.08
14 -0.15
15 0.19
16 -0.15
17 -0.15
18 -0.15
19 -0.05
2 -0.36
20 -0.15
21 -0.15
22 -0.15
23 -0.3
24 0.14
25 0.28
27 0.37
3 -0.57
31 0.15
32 0.15
33 0.15
34 0.15
35 0.15
36 0.15
37 0.15
38 0.15
39 0.15
4 -0.73
40 0.27
5 0.3
6 -0.71
7 0.44
8 -0.14

> <PUBCHEM_EFFECTIVE_ROTOR_COUNT>
6

> <PUBCHEM_PHARMACOPHORE_FEATURES>
8
1 2 acceptor
1 3 acceptor
1 4 donor
1 5 donor
1 6 acceptor
5 5 6 19 23 24 rings
6 10 12 13 14 17 18 rings
6 8 15 16 20 21 22 rings

> <PUBCHEM_HEAVY_ATOM_COUNT>
25

> <PUBCHEM_ATOM_DEF_STEREO_COUNT>
1

> <PUBCHEM_ATOM_UDEF_STEREO_COUNT>
0

> <PUBCHEM_BOND_DEF_STEREO_COUNT>
0

> <PUBCHEM_BOND_UDEF_STEREO_COUNT>
0

> <PUBCHEM_ISOTOPIC_ATOM_COUNT>
0

> <PUBCHEM_COMPONENT_COUNT>
1

> <PUBCHEM_CACTVS_TAUTO_COUNT>
-1

> <PUBCHEM_CONFORMER_ID>
09B1E61F00000001

> <PUBCHEM_MMFF94_ENERGY>
71.2892

> <PUBCHEM_FEATURE_SELFOVERLAP>
40.597

> <PUBCHEM_SHAPE_FINGERPRINT>
10 15 18259989296528116685
10165383 225 17989207062857265196
10670039 82 12031799071321282722
11524674 6 16225769631951534987
117089 54 16809242884834450362
11796584 16 14418137322346037865
11991303 11 12391500993456199749
12553582 1 17967254169745382782
12616971 3 17385438851733465838
12633257 1 18411973685208307424
12788726 201 18187655665000493340
13533116 47 17845662434335782462
13668630 136 14418131790638852016
13685833 64 15068618280026519232
14341114 328 18260827124899847128
14347332 77 11097842008797940045
14528608 73 14261345860249409472
14565420 104 17703495676176286146
15183329 4 10737282433181865661
15419008 42 15142337171783977491
15510800 12 15141505958510300512
15537594 2 17385448726048135946
17857418 61 17095526205790534441
17980427 23 18271236235375927317
1813 80 17168153320707346325
19377110 9 17967531290015566964
19784866 240 15791729668127873260
1979834 28 18342739603029225780
20511986 3 18114449167057268262
20567600 234 17917424350119220297
20567600 247 14634866461574932481
21033648 29 17561078146622061370
21130935 74 18059864922542720791
21344244 181 12324251546359664569
21424621 283 17488758770517590395
21623969 137 16226046691116341362
21637258 2 15719397265503592155
21781051 124 10015570753616851037
21792934 111 18268144267340357933
21859007 373 17750220436258383629
22061861 79 13623529056365323523
22122407 14 16271931527399210251
221357 26 13614527355175046058
23366157 5 17607254447907194765
23503953 91 18409172133791097631
23559900 14 18342471322065675638
23569914 152 7850254006424221129
23569914 2 16266538251335783857
25147074 1 18190747625168119383
2916195 48 17418093187917219689
29717793 49 12901550143354227005
3004659 81 17968108520223181510
3383291 50 18262244430133989755
34797466 226 14908185261310333445
3680242 22 17967531263929265522
4058900 60 13110700328244515597
474 4 13973966510730128716
5104073 3 18189062065295222761
5281201 14 11602542026697903526
542803 24 15697999617738180821
5718773 13 14057544728018112720
6004065 56 18059285561524009933
6608658 132 12607413212377087275
67856867 119 18116720809710116877
7226269 152 18343023268624276329
8988823 20 16950284022802529484
960060 61 9583516547274944320
9841814 1 17749680644562529812

> <PUBCHEM_SHAPE_MULTIPOLES>
480.53
16.19
1.94
1.76
5.55
1.04
0.65
-3.94
7.01
-0.07
0
-2.26
-0.12
0.63

> <PUBCHEM_SHAPE_SELFOVERLAP>
1045.604

> <PUBCHEM_SHAPE_VOLUME>
263.9

> <PUBCHEM_COORDINATE_TYPE>
2
5
10

$$$$
162656129
  -OEChem-05102415153D

 50 52  0     1  0  0  0  0  0999 V2000
   -2.1838   -0.1373    1.9213 F   0  0  0  0  0  0  0  0  0  0  0  0
   -3.5240    2.4359    1.0061 O   0  0  0  0  0  0  0  0  0  0  0  0
   -0.9956   -0.7575   -2.0820 O   0  0  0  0  0  0  0  0  0  0  0  0
    3.7799   -1.9436   -0.8777 O   0  0  0  0  0  0  0  0  0  0  0  0
   -1.5687    0.7387   -0.4063 N   0  0  0  0  0  0  0  0  0  0  0  0
    6.5865    0.9627    1.5182 N   0  0  0  0  0  0  0  0  0  0  0  0
    7.0700    0.1756    0.5421 N   0  0  0  0  0  0  0  0  0  0  0  0
   -3.6406    2.1224   -0.3844 C   0  0  0  0  0  0  0  0  0  0  0  0
   -2.9962    0.7310   -0.6585 C   0  0  2  0  0  0  0  0  0  0  0  0
   -3.6493   -0.4275    0.0764 C   0  0  0  0  0  0  0  0  0  0  0  0
   -5.1301    2.1488   -0.7553 C   0  0  0  0  0  0  0  0  0  0  0  0
   -2.9129    3.2250   -1.1702 C   0  0  0  0  0  0  0  0  0  0  0  0
   -3.1962   -0.7979    1.3426 C   0  0  0  0  0  0  0  0  0  0  0  0
   -4.7039   -1.1208   -0.5173 C   0  0  0  0  0  0  0  0  0  0  0  0
   -0.6831   -0.0181   -1.1524 C   0  0  0  0  0  0  0  0  0  0  0  0
    0.7437    0.0802   -0.7514 C   0  0  0  0  0  0  0  0  0  0  0  0
   -3.7976   -1.8618    2.0149 C   0  0  0  0  0  0  0  0  0  0  0  0
   -5.3054   -2.1847    0.1549 C   0  0  0  0  0  0  0  0  0  0  0  0
   -4.8522   -2.5552    1.4211 C   0  0  0  0  0  0  0  0  0  0  0  0
    1.6134   -0.9814   -1.0011 C   0  0  0  0  0  0  0  0  0  0  0  0
    1.2132    1.2329   -0.1217 C   0  0  0  0  0  0  0  0  0  0  0  0
    3.4218    0.2625    0.0085 C   0  0  0  0  0  0  0  0  0  0  0  0
    2.9525   -0.8902   -0.6211 C   0  0  0  0  0  0  0  0  0  0  0  0
    2.5522    1.3241    0.2582 C   0  0  0  0  0  0  0  0  0  0  0  0
    4.7983    0.3761    0.4092 C   0  0  0  0  0  0  0  0  0  0  0  0
    5.2315    1.1151    1.4832 C   0  0  0  0  0  0  0  0  0  0  0  0
    5.9731   -0.1796   -0.1322 C   0  0  0  0  0  0  0  0  0  0  0  0
    3.2037   -3.0755   -1.5252 C   0  0  0  0  0  0  0  0  0  0  0  0
   -3.1091    0.5297   -1.7337 H   0  0  0  0  0  0  0  0  0  0  0  0
   -5.2940    1.8411   -1.7930 H   0  0  0  0  0  0  0  0  0  0  0  0
   -5.5421    3.1575   -0.6314 H   0  0  0  0  0  0  0  0  0  0  0  0
   -5.7222    1.5095   -0.0923 H   0  0  0  0  0  0  0  0  0  0  0  0
   -3.3831    4.2006   -0.9995 H   0  0  0  0  0  0  0  0  0  0  0  0
   -2.9222    3.0236   -2.2464 H   0  0  0  0  0  0  0  0  0  0  0  0
   -1.8737    3.3343   -0.8413 H   0  0  0  0  0  0  0  0  0  0  0  0
   -1.2527    1.2362    0.4198 H   0  0  0  0  0  0  0  0  0  0  0  0
   -3.9322    3.3060    1.1545 H   0  0  0  0  0  0  0  0  0  0  0  0
   -5.0657   -0.8464   -1.5046 H   0  0  0  0  0  0  0  0  0  0  0  0
   -3.4446   -2.1499    3.0006 H   0  0  0  0  0  0  0  0  0  0  0  0
   -6.1260   -2.7252   -0.3076 H   0  0  0  0  0  0  0  0  0  0  0  0
   -5.3204   -3.3837    1.9445 H   0  0  0  0  0  0  0  0  0  0  0  0
    1.1924   -1.8550   -1.4862 H   0  0  0  0  0  0  0  0  0  0  0  0
    0.5778    2.0947    0.0607 H   0  0  0  0  0  0  0  0  0  0  0  0
    2.8864    2.2460    0.7275 H   0  0  0  0  0  0  0  0  0  0  0  0
    4.7234    1.7196    2.2218 H   0  0  0  0  0  0  0  0  0  0  0  0
    6.0948   -0.8183   -0.9954 H   0  0  0  0  0  0  0  0  0  0  0  0
    7.2402    1.3641    2.1789 H   0  0  0  0  0  0  0  0  0  0  0  0
    4.0034   -3.8131   -1.6514 H   0  0  0  0  0  0  0  0  0  0  0  0
    2.4345   -3.5494   -0.9058 H   0  0  0  0  0  0  0  0  0  0  0  0
    2.8431   -2.8287   -2.5297 H   0  0  0  0  0  0  0  0  0  0  0  0
  1 13  1  0  0  0  0
  2  8  1  0  0  0  0
  2 37  1  0  0  0  0
  3 15  2  0  0  0  0
  4 23  1  0  0  0  0
  4 28  1  0  0  0  0
  5  9  1  0  0  0  0
  5 15  1  0  0  0  0
  5 36  1  0  0  0  0
  6  7  1  0  0  0  0
  6 26  1  0  0  0  0
  6 47  1  0  0  0  0
  7 27  2  0  0  0  0
  8  9  1  0  0  0  0
  8 11  1  0  0  0  0
  8 12  1  0  0  0  0
  9 10  1  0  0  0  0
  9 29  1  0  0  0  0
 10 13  1  0  0  0  0
 10 14  2  0  0  0  0
 11 30  1  0  0  0  0
 11 31  1  0  0  0  0
 11 32  1  0  0  0  0
 12 33  1  0  0  0  0
 12 34  1  0  0  0  0
 12 35  1  0  0  0  0
 13 17  2  0  0  0  0
 14 18  1  0  0  0  0
 14 38  1  0  0  0  0
 15 16  1  0  0  0  0
 16 20  2  0  0  0  0
 16 21  1  0  0  0  0
 17 19  1  0  0  0  0
 17 39  1  0  0  0  0
 18 19  2  0  0  0  0
 18 40  1  0  0  0  0
 19 41  1  0  0  0  0
 20 23  1  0  0  0  0
 20 42  1  0  0  0  0
 21 24  2  0  0  0  0
 21 43  1  0  0  0  0
 22 23  2  0  0  0  0
 22 24  1  0  0  0  0
 22 25  1  0  0  0  0
 24 44  1  0  0  0  0
 25 26  2  0  0  0  0
 25 27  1  0  0  0  0
 26 45  1  0  0  0  0
 27 46  1  0  0  0  0
 28 48  1  0  0  0  0
 28 49  1  0  0  0  0
 28 50  1  0  0  0  0
M  END
> <PUBCHEM_COMPOUND_CID>
162656129

> <PUBCHEM_CONFORMER_RMSD>
0.8

> <PUBCHEM_CONFORMER_DIVERSEORDER>
5
75
56
97
30
100
52
61
58
95
64
32
94
42
79
49
87
63
71
88
59
80
69
74
85
84
89
67
22
93
81
68
91
72
77
78
70
29
4
98
23
44
57
99
96
55
50
60
27
47
101
24
53
92
43
82
13
16
37
51
36
86
48
35
33
65
38
26
40
46
54
11
10
20
102
34
76
62
18
90
14
25
15
6
41
66
39
45
28
83
31
8
2
7
19
17
9
73
12
1
21
3

> <PUBCHEM_MMFF94_PARTIAL_CHARGES>
38
1 -0.19
10 -0.14
13 0.19
14 -0.15
15 0.54
16 0.09
17 -0.15
18 -0.15
19 -0.15
2 -0.68
20 -0.15
21 -0.15
22 0.05
23 0.08
24 -0.15
25 -0.05
26 -0.3
27 0.14
28 0.28
3 -0.57
36 0.37
37 0.4
38 0.15
39 0.15
4 -0.36
40 0.15
41 0.15
42 0.15
43 0.15
44 0.15
45 0.15
46 0.15
47 0.27
5 -0.73
6 0.3
7 -0.71
8 0.28
9 0.44

> <PUBCHEM_EFFECTIVE_ROTOR_COUNT>
7

> <PUBCHEM_PHARMACOPHORE_FEATURES>
11
1 2 acceptor
1 2 donor
1 3 acceptor
1 4 acceptor
1 5 donor
1 6 donor
1 7 acceptor
3 8 11 12 hydrophobe
5 6 7 25 26 27 rings
6 10 13 14 17 18 19 rings
6 16 20 21 22 23 24 rings

> <PUBCHEM_HEAVY_ATOM_COUNT>
28

> <PUBCHEM_ATOM_DEF_STEREO_COUNT>
1

> <PUBCHEM_ATOM_UDEF_STEREO_COUNT>
0

> <PUBCHEM_BOND_DEF_STEREO_COUNT>
0

> <PUBCHEM_BOND_UDEF_STEREO_COUNT>
0

> <PUBCHEM_ISOTOPIC_ATOM_COUNT>
0

> <PUBCHEM_COMPONENT_COUNT>
1

> <PUBCHEM_CACTVS_TAUTO_COUNT>
-1

> <PUBCHEM_CONFORMER_ID>
09B1EF8100000005

> <PUBCHEM_MMFF94_ENERGY>
83.1468

> <PUBCHEM_FEATURE_SELFOVERLAP>
55.823

> <PUBCHEM_SHAPE_FINGERPRINT>
10 15 18341603876453695664
11135926 11 10881944053263275384
11315181 36 17603585261345256716
11370993 144 18127703633996709641
11497681 19 17346025783794563831
11545043 162 18409443708968840232
12403259 118 18408040723573589820
12507557 5 18059856177224148569
12507560 40 18271808990676115070
12633257 1 17240487983196594292
12892183 10 18201164277748909070
13583140 156 18201718448736371285
13782708 43 18113617885466059978
13911987 19 16630234836662782605
13947920 75 17894904132022346113
14068700 675 17749955599942291383
14790565 3 18129653244950448108
14844126 61 18114465647701501123
14849402 71 17130421514170737544
14856354 85 17894918433999613222
14910302 57 17896039840906726751
15081414 286 17632865231109494048
15183329 4 8574448516495085574
15188451 53 17967810608639087795
15510800 12 17969515959906842971
17349148 13 16877947169716552851
17844677 252 18131356276201568100
17857418 61 15864062192086976778
17913733 40 17846498149657852118
19489759 90 18187361038891418625
21033648 144 18198056989386174141
21033648 29 17988346127171059984
21065199 12 18341898463147889814
21304303 282 17896302633809544901
21623969 137 18343303686975663442
21781051 124 18410864261856757134
22122407 14 17203609259447594985
22956985 138 17399236842673872027
2303208 19 18201449060446569326
23522609 53 16878806906722424428
23559900 14 18190755128397240958
2838139 119 14764344973032665274
3004659 81 13768198454115275082
3009799 131 11097845312187161326
32027 91 17975691684891916402
3552219 110 16126669661182073197
376196 1 17622716519367678965
4015057 19 18058156229447986165
4073 2 18336267855823188050
4403749 210 18338222864870049652
463206 1 17608103275638059459
469060 322 18057586858602464015
508706 21 18114755870814774675
5104073 3 18341897329487656818
5364581 5 18335420231085236280
57527585 103 15286228132643980899
5924683 9 18186239537289381041
6009941 240 18335697200593391032
602551 16 17531252768416139450
613672 6 18188219822372643899
7495541 125 17531245106542759924
90127 26 17988368057278919228
9709674 26 18335989696730100143

> <PUBCHEM_SHAPE_MULTIPOLES>
536.4
15.65
2.95
1.65
15.94
0.19
0.28
-1.19
5.15
-4.18
-0.43
-0.13
-0.59
3.3

> <PUBCHEM_SHAPE_SELFOVERLAP>
1163.135

> <PUBCHEM_SHAPE_VOLUME>
295.1

> <PUBCHEM_COORDINATE_TYPE>
2
5
10

$$$$
118662941
  -OEChem-05102415153D

 44 46  0     1  0  0  0  0  0999 V2000
    3.1366    1.4787   -1.9959 F   0  0  0  0  0  0  0  0  0  0  0  0
    4.4658   -1.3598    1.5701 F   0  0  0  0  0  0  0  0  0  0  0  0
    3.2121    3.0340    2.0152 O   0  0  0  0  0  0  0  0  0  0  0  0
   -3.5546   -2.1105    0.4129 O   0  0  0  0  0  0  0  0  0  0  0  0
    1.1475   -0.9040    1.8645 O   0  0  0  0  0  0  0  0  0  0  0  0
    1.6219    0.9357    0.5349 N   0  0  0  0  0  0  0  0  0  0  0  0
   -6.5246    0.7498   -1.5396 N   0  0  0  0  0  0  0  0  0  0  0  0
   -7.0082    0.3206   -0.3614 N   0  0  0  0  0  0  0  0  0  0  0  0
    3.0440    0.9652    0.7907 C   0  0  1  0  0  0  0  0  0  0  0  0
    3.7841    0.0807   -0.1894 C   0  0  0  0  0  0  0  0  0  0  0  0
    3.5639    2.4053    0.7869 C   0  0  0  0  0  0  0  0  0  0  0  0
   -0.6481    0.0787    0.7206 C   0  0  0  0  0  0  0  0  0  0  0  0
    0.7542   -0.0091    1.0954 C   0  0  0  0  0  0  0  0  0  0  0  0
   -3.3393    0.2485    0.0049 C   0  0  0  0  0  0  0  0  0  0  0  0
    3.7871    0.3955   -1.5483 C   0  0  0  0  0  0  0  0  0  0  0  0
    4.4636   -1.0491    0.2664 C   0  0  0  0  0  0  0  0  0  0  0  0
   -2.7946   -0.9784    0.3842 C   0  0  0  0  0  0  0  0  0  0  0  0
   -1.4490   -1.0632    0.7421 C   0  0  0  0  0  0  0  0  0  0  0  0
   -1.1929    1.3056    0.3412 C   0  0  0  0  0  0  0  0  0  0  0  0
   -2.5383    1.3904   -0.0168 C   0  0  0  0  0  0  0  0  0  0  0  0
   -4.7244    0.3588   -0.3661 C   0  0  0  0  0  0  0  0  0  0  0  0
    4.4697   -0.4195   -2.4515 C   0  0  0  0  0  0  0  0  0  0  0  0
    5.1461   -1.8641   -0.6368 C   0  0  0  0  0  0  0  0  0  0  0  0
    5.1490   -1.5494   -1.9957 C   0  0  0  0  0  0  0  0  0  0  0  0
   -5.1623    0.7910   -1.5941 C   0  0  0  0  0  0  0  0  0  0  0  0
   -5.9039    0.0833    0.3513 C   0  0  0  0  0  0  0  0  0  0  0  0
   -2.9055   -3.3147    0.8143 C   0  0  0  0  0  0  0  0  0  0  0  0
    3.1851    0.5683    1.8043 H   0  0  0  0  0  0  0  0  0  0  0  0
    1.2750    1.5714   -0.1762 H   0  0  0  0  0  0  0  0  0  0  0  0
    4.6571    2.4264    0.7158 H   0  0  0  0  0  0  0  0  0  0  0  0
    3.1493    2.9976   -0.0358 H   0  0  0  0  0  0  0  0  0  0  0  0
   -0.9721   -1.9912    1.0382 H   0  0  0  0  0  0  0  0  0  0  0  0
   -0.6127    2.2238    0.3410 H   0  0  0  0  0  0  0  0  0  0  0  0
   -2.9454    2.3589   -0.2986 H   0  0  0  0  0  0  0  0  0  0  0  0
    4.4718   -0.1743   -3.5094 H   0  0  0  0  0  0  0  0  0  0  0  0
    5.6749   -2.7437   -0.2817 H   0  0  0  0  0  0  0  0  0  0  0  0
    5.6802   -2.1840   -2.6989 H   0  0  0  0  0  0  0  0  0  0  0  0
    3.5638    3.9400    1.9825 H   0  0  0  0  0  0  0  0  0  0  0  0
   -4.6455    1.1169   -2.4862 H   0  0  0  0  0  0  0  0  0  0  0  0
   -6.0091   -0.2800    1.3641 H   0  0  0  0  0  0  0  0  0  0  0  0
   -7.1835    0.9990   -2.2666 H   0  0  0  0  0  0  0  0  0  0  0  0
   -3.6577   -4.1100    0.7814 H   0  0  0  0  0  0  0  0  0  0  0  0
   -2.1140   -3.6019    0.1136 H   0  0  0  0  0  0  0  0  0  0  0  0
   -2.5520   -3.2596    1.8497 H   0  0  0  0  0  0  0  0  0  0  0  0
  1 15  1  0  0  0  0
  2 16  1  0  0  0  0
  3 11  1  0  0  0  0
  3 38  1  0  0  0  0
  4 17  1  0  0  0  0
  4 27  1  0  0  0  0
  5 13  2  0  0  0  0
  6  9  1  0  0  0  0
  6 13  1  0  0  0  0
  6 29  1  0  0  0  0
  7  8  1  0  0  0  0
  7 25  1  0  0  0  0
  7 41  1  0  0  0  0
  8 26  2  0  0  0  0
  9 10  1  0  0  0  0
  9 11  1  0  0  0  0
  9 28  1  0  0  0  0
 10 15  2  0  0  0  0
 10 16  1  0  0  0  0
 11 30  1  0  0  0  0
 11 31  1  0  0  0  0
 12 13  1  0  0  0  0
 12 18  2  0  0  0  0
 12 19  1  0  0  0  0
 14 17  2  0  0  0  0
 14 20  1  0  0  0  0
 14 21  1  0  0  0  0
 15 22  1  0  0  0  0
 16 23  2  0  0  0  0
 17 18  1  0  0  0  0
 18 32  1  0  0  0  0
 19 20  2  0  0  0  0
 19 33  1  0  0  0  0
 20 34  1  0  0  0  0
 21 25  2  0  0  0  0
 21 26  1  0  0  0  0
 22 24  2  0  0  0  0
 22 35  1  0  0  0  0
 23 24  1  0  0  0  0
 23 36  1  0  0  0  0
 24 37  1  0  0  0  0
 25 39  1  0  0  0  0
 26 40  1  0  0  0  0
 27 42  1  0  0  0  0
 27 43  1  0  0  0  0
 27 44  1  0  0  0  0
M  END
> <PUBCHEM_COMPOUND_CID>
118662941

> <PUBCHEM_CONFORMER_RMSD>
0.8

> <PUBCHEM_CONFORMER_DIVERSEORDER>
2
55
52
49
25
56
42
30
53
20
3
51
29
35
46
27
44
24
31
6
26
12
50
47
38
11
54
17
18
41
39
34
43
8
45
21
19
13
7
15
48
40
9
23
32
36
16
14
33
28
22
37
10
5
4
1

> <PUBCHEM_MMFF94_PARTIAL_CHARGES>
38
1 -0.19
10 -0.14
11 0.28
12 0.09
13 0.54
14 0.05
15 0.19
16 0.19
17 0.08
18 -0.15
19 -0.15
2 -0.19
20 -0.15
21 -0.05
22 -0.15
23 -0.15
24 -0.15
25 -0.3
26 0.14
27 0.28
29 0.37
3 -0.68
32 0.15
33 0.15
34 0.15
35 0.15
36 0.15
37 0.15
38 0.4
39 0.15
4 -0.36
40 0.15
41 0.27
5 -0.57
6 -0.73
7 0.3
8 -0.71
9 0.44

> <PUBCHEM_EFFECTIVE_ROTOR_COUNT>
7

> <PUBCHEM_PHARMACOPHORE_FEATURES>
10
1 3 acceptor
1 3 donor
1 4 acceptor
1 5 acceptor
1 6 donor
1 7 donor
1 8 acceptor
5 7 8 21 25 26 rings
6 10 15 16 22 23 24 rings
6 12 14 17 18 19 20 rings

> <PUBCHEM_HEAVY_ATOM_COUNT>
27

> <PUBCHEM_ATOM_DEF_STEREO_COUNT>
1

> <PUBCHEM_ATOM_UDEF_STEREO_COUNT>
0

> <PUBCHEM_BOND_DEF_STEREO_COUNT>
0

> <PUBCHEM_BOND_UDEF_STEREO_COUNT>
0

> <PUBCHEM_ISOTOPIC_ATOM_COUNT>
0

> <PUBCHEM_COMPONENT_COUNT>
1

> <PUBCHEM_CACTVS_TAUTO_COUNT>
9

> <PUBCHEM_CONFORMER_ID>
0712A71D00000002

> <PUBCHEM_MMFF94_ENERGY>
72.8914

> <PUBCHEM_FEATURE_SELFOVERLAP>
50.749

> <PUBCHEM_SHAPE_FINGERPRINT>
10670039 82 17531811242497018492
11135609 201 11819573579190986182
11796584 16 18410577301283558818
11991303 11 17967253122559936859
12166972 35 16845575279841765246
13533116 47 16702299053175881202
13782708 43 17418371420325627375
14347332 77 17703509883569586689
14528608 73 16515408469070257989
14840074 17 15791457019699561151
15131766 46 14201690826467221551
15183329 4 18409735023704595399
15419008 42 15193615035597461901
15510800 12 17631748079618985366
15575132 122 16298663902756479199
17349148 13 15913334584792007822
17857418 61 14979952571461886709
19315092 285 16055473835026559598
20369508 70 18343298150715132040
20645477 70 17847061099352414364
21315764 119 18187934928000157063
21781051 124 18186814595072686531
22061861 79 18131634486908162351
221357 26 18341331111022113280
2215653 11 18343867705742750591
22393880 68 18336266829173621290
2303208 19 18336553802251263867
23559900 14 18411419548533078144
23569943 247 17631458856843168687
29717793 49 17846494820699196337
3004659 81 18260830376074214578
3298306 158 18413390908357600479
34797466 226 18342171219889842905
3886686 26 12243513196070778756
4015057 19 17846773049018209241
4058900 60 17677893419206164003
44062 13 18336551611549475927
59682541 52 18342172220421810711
633830 44 16153427272364329458
8988823 20 15339110243650849482
960060 61 17275106162510428849
9658208 31 18040715917583706819

> <PUBCHEM_SHAPE_MULTIPOLES>
508.55
15.72
2.44
1.87
12.44
0.3
-0.7
1.7
-7.1
-1.51
1.04
-1.94
-0.04
2.31

> <PUBCHEM_SHAPE_SELFOVERLAP>
1108.731

> <PUBCHEM_SHAPE_VOLUME>
277.4

> <PUBCHEM_COORDINATE_TYPE>
2
5
10

$$$$
