6540027
  -OEChem-05102415013D

 48 52  0     0  0  0  0  0  0999 V2000
    6.0424   -1.4346    0.3505 S   0  0  0  0  0  0  0  0  0  0  0  0
   -2.7658    1.1309    0.3416 O   0  0  0  0  0  0  0  0  0  0  0  0
   -2.0003   -1.0347   -0.1205 N   0  0  0  0  0  0  0  0  0  0  0  0
    6.9406    1.0385    0.0357 N   0  0  0  0  0  0  0  0  0  0  0  0
    5.3840    2.8405   -0.3665 N   0  0  0  0  0  0  0  0  0  0  0  0
    3.0738    2.6165   -0.2947 N   0  0  0  0  0  0  0  0  0  0  0  0
   -4.2691   -0.6004   -0.1186 N   0  0  0  0  0  0  0  0  0  0  0  0
    2.4724   -3.0918   -0.4537 C   0  0  0  0  0  0  0  0  0  0  0  0
    3.6470   -0.5041    0.1147 C   0  0  0  0  0  0  0  0  0  0  0  0
    3.7626   -3.0447    0.3741 C   0  0  0  0  0  0  0  0  0  0  0  0
    1.5989   -1.8804   -0.1958 C   0  0  0  0  0  0  0  0  0  0  0  0
    2.1815   -0.6164    0.0724 C   0  0  0  0  0  0  0  0  0  0  0  0
    4.3652   -1.6793    0.2692 C   0  0  0  0  0  0  0  0  0  0  0  0
    4.5285    0.6303   -0.0321 C   0  0  0  0  0  0  0  0  0  0  0  0
    0.2047   -2.0082   -0.2658 C   0  0  0  0  0  0  0  0  0  0  0  0
    1.3418    0.4727    0.3310 C   0  0  0  0  0  0  0  0  0  0  0  0
    5.8588    0.2381    0.1011 C   0  0  0  0  0  0  0  0  0  0  0  0
   -0.6140   -0.9062   -0.0316 C   0  0  0  0  0  0  0  0  0  0  0  0
   -0.0469    0.3277    0.2748 C   0  0  0  0  0  0  0  0  0  0  0  0
    4.3336    1.9951   -0.2900 C   0  0  0  0  0  0  0  0  0  0  0  0
    6.6103    2.3176   -0.1961 C   0  0  0  0  0  0  0  0  0  0  0  0
   -2.9937   -0.0421    0.0637 C   0  0  0  0  0  0  0  0  0  0  0  0
   -5.5242    0.0459   -0.0248 C   0  0  0  0  0  0  0  0  0  0  0  0
   -6.6812   -0.6850   -0.2390 C   0  0  0  0  0  0  0  0  0  0  0  0
   -7.9184   -0.0477   -0.1451 C   0  0  0  0  0  0  0  0  0  0  0  0
   -5.5697    1.3961    0.2809 C   0  0  0  0  0  0  0  0  0  0  0  0
   -7.9813    1.3116    0.1619 C   0  0  0  0  0  0  0  0  0  0  0  0
   -6.8070    2.0335    0.3748 C   0  0  0  0  0  0  0  0  0  0  0  0
   -9.1745   -0.8195   -0.3720 C   0  0  0  0  0  0  0  0  0  0  0  0
    1.9329   -4.0161   -0.2157 H   0  0  0  0  0  0  0  0  0  0  0  0
    2.7116   -3.1143   -1.5248 H   0  0  0  0  0  0  0  0  0  0  0  0
    4.4499   -3.8233    0.0244 H   0  0  0  0  0  0  0  0  0  0  0  0
    3.5372   -3.2498    1.4284 H   0  0  0  0  0  0  0  0  0  0  0  0
   -0.2362   -2.9743   -0.5021 H   0  0  0  0  0  0  0  0  0  0  0  0
    1.6927    1.3750    0.8080 H   0  0  0  0  0  0  0  0  0  0  0  0
   -0.6154    1.2093    0.5363 H   0  0  0  0  0  0  0  0  0  0  0  0
   -2.3390   -1.9655   -0.3513 H   0  0  0  0  0  0  0  0  0  0  0  0
    7.4359    3.0176   -0.2576 H   0  0  0  0  0  0  0  0  0  0  0  0
    3.0861    3.6298   -0.3264 H   0  0  0  0  0  0  0  0  0  0  0  0
    2.3604    2.1761   -0.8613 H   0  0  0  0  0  0  0  0  0  0  0  0
   -4.3041   -1.5910   -0.3456 H   0  0  0  0  0  0  0  0  0  0  0  0
   -6.6307   -1.7449   -0.4760 H   0  0  0  0  0  0  0  0  0  0  0  0
   -4.7105    2.0247    0.4595 H   0  0  0  0  0  0  0  0  0  0  0  0
   -8.9391    1.8190    0.2398 H   0  0  0  0  0  0  0  0  0  0  0  0
   -6.8574    3.0918    0.6142 H   0  0  0  0  0  0  0  0  0  0  0  0
   -9.0185   -1.6206   -1.1024 H   0  0  0  0  0  0  0  0  0  0  0  0
   -9.5179   -1.2627    0.5680 H   0  0  0  0  0  0  0  0  0  0  0  0
   -9.9685   -0.1766   -0.7670 H   0  0  0  0  0  0  0  0  0  0  0  0
  1 13  1  0  0  0  0
  1 17  1  0  0  0  0
  2 22  2  0  0  0  0
  3 18  1  0  0  0  0
  3 22  1  0  0  0  0
  3 37  1  0  0  0  0
  4 17  2  0  0  0  0
  4 21  1  0  0  0  0
  5 20  1  0  0  0  0
  5 21  2  0  0  0  0
  6 20  1  0  0  0  0
  6 39  1  0  0  0  0
  6 40  1  0  0  0  0
  7 22  1  0  0  0  0
  7 23  1  0  0  0  0
  7 41  1  0  0  0  0
  8 10  1  0  0  0  0
  8 11  1  0  0  0  0
  8 30  1  0  0  0  0
  8 31  1  0  0  0  0
  9 12  1  0  0  0  0
  9 13  2  0  0  0  0
  9 14  1  0  0  0  0
 10 13  1  0  0  0  0
 10 32  1  0  0  0  0
 10 33  1  0  0  0  0
 11 12  2  0  0  0  0
 11 15  1  0  0  0  0
 12 16  1  0  0  0  0
 14 17  1  0  0  0  0
 14 20  2  0  0  0  0
 15 18  2  0  0  0  0
 15 34  1  0  0  0  0
 16 19  2  0  0  0  0
 16 35  1  0  0  0  0
 18 19  1  0  0  0  0
 19 36  1  0  0  0  0
 21 38  1  0  0  0  0
 23 24  1  0  0  0  0
 23 26  2  0  0  0  0
 24 25  2  0  0  0  0
 24 42  1  0  0  0  0
 25 27  1  0  0  0  0
 25 29  1  0  0  0  0
 26 28  1  0  0  0  0
 26 43  1  0  0  0  0
 27 28  2  0  0  0  0
 27 44  1  0  0  0  0
 28 45  1  0  0  0  0
 29 46  1  0  0  0  0
 29 47  1  0  0  0  0
 29 48  1  0  0  0  0
M  END
> <PUBCHEM_COMPOUND_CID>
6540027

> <PUBCHEM_CONFORMER_RMSD>
0.8

> <PUBCHEM_CONFORMER_DIVERSEORDER>
1
21
24
13
4
19
18
14
5
2
20
3
23
12
7
16
10
11
6
17
25
8
15
9
22

> <PUBCHEM_MMFF94_PARTIAL_CHARGES>
40
1 -0.08
10 0.18
11 -0.14
12 0.05
13 -0.14
15 -0.15
16 -0.15
17 0.3
18 0.12
19 -0.15
2 -0.57
20 0.41
21 0.47
22 0.69
23 0.12
24 -0.15
25 -0.14
26 -0.15
27 -0.15
28 -0.15
29 0.14
3 -0.55
34 0.15
35 0.15
36 0.15
37 0.37
38 0.15
39 0.4
4 -0.57
40 0.4
41 0.37
42 0.15
43 0.15
44 0.15
45 0.15
5 -0.62
6 -0.9
7 -0.55
8 0.14
9 -0.05

> <PUBCHEM_EFFECTIVE_ROTOR_COUNT>
4.4

> <PUBCHEM_PHARMACOPHORE_FEATURES>
12
1 2 acceptor
1 3 donor
1 4 acceptor
1 6 cation
1 6 donor
1 7 donor
3 4 5 21 cation
5 1 9 13 14 17 rings
6 11 12 15 16 18 19 rings
6 23 24 25 26 27 28 rings
6 4 5 14 17 20 21 rings
6 8 9 10 11 12 13 rings

> <PUBCHEM_HEAVY_ATOM_COUNT>
29

> <PUBCHEM_ATOM_DEF_STEREO_COUNT>
0

> <PUBCHEM_ATOM_UDEF_STEREO_COUNT>
0

> <PUBCHEM_BOND_DEF_STEREO_COUNT>
0

> <PUBCHEM_BOND_UDEF_STEREO_COUNT>
0

> <PUBCHEM_ISOTOPIC_ATOM_COUNT>
0

> <PUBCHEM_COMPONENT_COUNT>
1

> <PUBCHEM_CACTVS_TAUTO_COUNT>
12

> <PUBCHEM_CONFORMER_ID>
0063CAFB00000001

> <PUBCHEM_MMFF94_ENERGY>
104.3678

> <PUBCHEM_FEATURE_SELFOVERLAP>
61.109

> <PUBCHEM_SHAPE_FINGERPRINT>
10 15 17967813868318461171
10050765 1 18410576222967699263
10162869 55 18410565219640411911
10165383 225 18336546114603039516
10299344 5 18273213097833211327
10411042 1 17905607706253317714
10595046 47 18342458106730724249
10625338 86 16515398582045162836
10673678 19 18342462577406563834
10835480 77 18334858329451247923
11315181 36 18413388723500225457
11374522 174 17607821800619261596
11578080 2 13697307464069548196
11719270 70 18272930501153306790
125118 31 18410293575875749897
12925494 130 18265331883878419472
14142895 15 18338234968462592383
14170010 4 18187366527775090556
14251764 18 18344143688178859023
14429380 56 18336537270668869151
14849402 71 18341333370718457521
14933364 13 18409167701817455441
15183329 4 17632301172701076425
15419008 145 18188760631795820448
15419008 47 16950275205102900293
15439362 3 17911513522055001480
15475509 35 16226596383249908778
15510794 2 18041000657880326059
1577012 14 18343578568523278495
15840311 113 18408606963677097204
15890870 6 18410295852609330388
16087824 20 18408887348418670108
16120349 18 18409443696326167357
16989713 51 17130976737857860095
18335252 98 18410016563929105715
18608769 82 18338800130583049715
19427546 62 18409450306218318234
19611394 137 17970641890568390539
20157964 124 18410294700977566978
20721686 56 18333454244776744817
21033650 10 14979693065422802163
21049683 271 18201437008927151121
21150785 3 17989488537432841015
21315763 28 18410854331211275907
21344244 78 18192975051549250642
22149856 69 17417258628616852211
22224240 67 17894347787480862107
23522609 53 17845394210050689657
255183 451 17841721708165422702
335352 9 18410862054111211062
335507 130 18272087215101372767
34797466 226 18059862744170946903
350125 39 18412261718394486961
397830 11 17677065649742429273
4073 2 18187650236620761179
4098825 35 18336825304314218233
4169191 19 18410856547525423885
4325135 7 18343018896093984647
4340502 62 17240199928683602690
444735 82 18259989266542740349
44555599 121 18271532992316028697
45377200 153 15984817212381188055
4918590 53 18187376437150801353
6328613 192 18413671310018793513
67123 10 18410011053607182639
99344 41 18411136952295297653

> <PUBCHEM_SHAPE_MULTIPOLES>
569.88
25.27
2.99
0.67
46.67
0.01
-0.01
8.74
0.44
-5.15
0.22
-0.02
-0.03
-1.16

> <PUBCHEM_SHAPE_SELFOVERLAP>
1263.865

> <PUBCHEM_SHAPE_VOLUME>
305.2

> <PUBCHEM_COORDINATE_TYPE>
2
5
10

$$$$
6539985
  -OEChem-05102415013D

 44 47  0     0  0  0  0  0  0999 V2000
    6.0199   -1.9634    0.8053 S   0  0  0  0  0  0  0  0  0  0  0  0
   -2.6074    0.0902    1.2327 O   0  0  0  0  0  0  0  0  0  0  0  0
   -1.7278   -0.5184   -0.8519 N   0  0  0  0  0  0  0  0  0  0  0  0
    7.1805    0.3971    0.3819 N   0  0  0  0  0  0  0  0  0  0  0  0
   -4.0054   -0.2141   -0.6172 N   0  0  0  0  0  0  0  0  0  0  0  0
    5.8239    2.2740   -0.3361 N   0  0  0  0  0  0  0  0  0  0  0  0
    3.4833    2.1100   -0.6840 N   0  0  0  0  0  0  0  0  0  0  0  0
    3.7932   -0.8668    0.1458 C   0  0  0  0  0  0  0  0  0  0  0  0
    2.3774   -0.7778   -0.1099 C   0  0  0  0  0  0  0  0  0  0  0  0
    4.7771    0.1660    0.0401 C   0  0  0  0  0  0  0  0  0  0  0  0
    6.0361   -0.3140    0.3765 C   0  0  0  0  0  0  0  0  0  0  0  0
    1.5082   -0.4310    0.9209 C   0  0  0  0  0  0  0  0  0  0  0  0
    1.8869   -1.0390   -1.3864 C   0  0  0  0  0  0  0  0  0  0  0  0
    4.3316   -2.0689    0.5509 C   0  0  0  0  0  0  0  0  0  0  0  0
   -0.3576   -0.6056   -0.6041 C   0  0  0  0  0  0  0  0  0  0  0  0
    4.7075    1.5146   -0.3246 C   0  0  0  0  0  0  0  0  0  0  0  0
    0.1382   -0.3447    0.6734 C   0  0  0  0  0  0  0  0  0  0  0  0
    0.5168   -0.9526   -1.6339 C   0  0  0  0  0  0  0  0  0  0  0  0
   -5.2879    0.0559   -0.0842 C   0  0  0  0  0  0  0  0  0  0  0  0
   -7.6615    0.2352   -0.3829 C   0  0  0  0  0  0  0  0  0  0  0  0
   -2.7692   -0.1841    0.0478 C   0  0  0  0  0  0  0  0  0  0  0  0
   -6.3973   -0.0298   -0.9093 C   0  0  0  0  0  0  0  0  0  0  0  0
   -5.4075    0.3990    1.2525 C   0  0  0  0  0  0  0  0  0  0  0  0
    6.9790    1.6750    0.0138 C   0  0  0  0  0  0  0  0  0  0  0  0
   -7.7989    0.5821    0.9611 C   0  0  0  0  0  0  0  0  0  0  0  0
   -6.6718    0.6640    1.7788 C   0  0  0  0  0  0  0  0  0  0  0  0
   -8.8672    0.1470   -1.2568 C   0  0  0  0  0  0  0  0  0  0  0  0
    1.8804   -0.2236    1.9214 H   0  0  0  0  0  0  0  0  0  0  0  0
    2.5555   -1.3094   -2.2001 H   0  0  0  0  0  0  0  0  0  0  0  0
    3.8238   -3.0104    0.7135 H   0  0  0  0  0  0  0  0  0  0  0  0
   -0.4715   -0.0700    1.5221 H   0  0  0  0  0  0  0  0  0  0  0  0
    0.1444   -1.1580   -2.6344 H   0  0  0  0  0  0  0  0  0  0  0  0
   -2.0128   -0.7224   -1.8066 H   0  0  0  0  0  0  0  0  0  0  0  0
   -6.2890   -0.3023   -1.9561 H   0  0  0  0  0  0  0  0  0  0  0  0
   -3.9857   -0.4600   -1.6038 H   0  0  0  0  0  0  0  0  0  0  0  0
   -4.5885    0.4842    1.9504 H   0  0  0  0  0  0  0  0  0  0  0  0
    7.8607    2.3061   -0.0036 H   0  0  0  0  0  0  0  0  0  0  0  0
   -8.7786    0.7890    1.3836 H   0  0  0  0  0  0  0  0  0  0  0  0
    3.4851    3.0887   -0.9397 H   0  0  0  0  0  0  0  0  0  0  0  0
    2.6153    1.5995   -0.6965 H   0  0  0  0  0  0  0  0  0  0  0  0
   -6.7802    0.9338    2.8254 H   0  0  0  0  0  0  0  0  0  0  0  0
   -8.6275    0.4260   -2.2885 H   0  0  0  0  0  0  0  0  0  0  0  0
   -9.2611   -0.8742   -1.2512 H   0  0  0  0  0  0  0  0  0  0  0  0
   -9.6543    0.8281   -0.9157 H   0  0  0  0  0  0  0  0  0  0  0  0
  1 11  1  0  0  0  0
  1 14  1  0  0  0  0
  2 21  2  0  0  0  0
  3 15  1  0  0  0  0
  3 21  1  0  0  0  0
  3 33  1  0  0  0  0
  4 11  2  0  0  0  0
  4 24  1  0  0  0  0
  5 19  1  0  0  0  0
  5 21  1  0  0  0  0
  5 35  1  0  0  0  0
  6 16  1  0  0  0  0
  6 24  2  0  0  0  0
  7 16  1  0  0  0  0
  7 39  1  0  0  0  0
  7 40  1  0  0  0  0
  8  9  1  0  0  0  0
  8 10  1  0  0  0  0
  8 14  2  0  0  0  0
  9 12  2  0  0  0  0
  9 13  1  0  0  0  0
 10 11  1  0  0  0  0
 10 16  2  0  0  0  0
 12 17  1  0  0  0  0
 12 28  1  0  0  0  0
 13 18  2  0  0  0  0
 13 29  1  0  0  0  0
 14 30  1  0  0  0  0
 15 17  2  0  0  0  0
 15 18  1  0  0  0  0
 17 31  1  0  0  0  0
 18 32  1  0  0  0  0
 19 22  1  0  0  0  0
 19 23  2  0  0  0  0
 20 22  2  0  0  0  0
 20 25  1  0  0  0  0
 20 27  1  0  0  0  0
 22 34  1  0  0  0  0
 23 26  1  0  0  0  0
 23 36  1  0  0  0  0
 24 37  1  0  0  0  0
 25 26  2  0  0  0  0
 25 38  1  0  0  0  0
 26 41  1  0  0  0  0
 27 42  1  0  0  0  0
 27 43  1  0  0  0  0
 27 44  1  0  0  0  0
M  END
> <PUBCHEM_COMPOUND_CID>
6539985

> <PUBCHEM_CONFORMER_RMSD>
0.8

> <PUBCHEM_CONFORMER_DIVERSEORDER>
2
11
15
10
17
7
16
12
9
4
18
3
13
14
6
1
5
8

> <PUBCHEM_MMFF94_PARTIAL_CHARGES>
40
1 -0.08
11 0.3
12 -0.15
13 -0.15
14 -0.11
15 0.12
16 0.41
17 -0.15
18 -0.15
19 0.12
2 -0.57
20 -0.14
21 0.69
22 -0.15
23 -0.15
24 0.47
25 -0.15
26 -0.15
27 0.14
28 0.15
29 0.15
3 -0.55
30 0.15
31 0.15
32 0.15
33 0.37
34 0.15
35 0.37
36 0.15
37 0.15
38 0.15
39 0.4
4 -0.57
40 0.4
41 0.15
5 -0.55
6 -0.62
7 -0.9
8 -0.05
9 0.05

> <PUBCHEM_EFFECTIVE_ROTOR_COUNT>
5

> <PUBCHEM_PHARMACOPHORE_FEATURES>
11
1 2 acceptor
1 3 donor
1 4 acceptor
1 5 donor
1 7 cation
1 7 donor
3 4 6 24 cation
5 1 8 10 11 14 rings
6 19 20 22 23 25 26 rings
6 4 6 10 11 16 24 rings
6 9 12 13 15 17 18 rings

> <PUBCHEM_HEAVY_ATOM_COUNT>
27

> <PUBCHEM_ATOM_DEF_STEREO_COUNT>
0

> <PUBCHEM_ATOM_UDEF_STEREO_COUNT>
0

> <PUBCHEM_BOND_DEF_STEREO_COUNT>
0

> <PUBCHEM_BOND_UDEF_STEREO_COUNT>
0

> <PUBCHEM_ISOTOPIC_ATOM_COUNT>
0

> <PUBCHEM_COMPONENT_COUNT>
1

> <PUBCHEM_CACTVS_TAUTO_COUNT>
12

> <PUBCHEM_CONFORMER_ID>
0063CAD100000002

> <PUBCHEM_MMFF94_ENERGY>
85.7286

> <PUBCHEM_FEATURE_SELFOVERLAP>
55.95

> <PUBCHEM_SHAPE_FINGERPRINT>
10 15 16732704977731996084
10162869 55 18337944684133411335
10299344 5 18060418010913002923
10554248 39 17702940306312446645
10906281 52 17775300356363956427
11315181 36 18344145900567161875
11524674 6 16660370281785655243
11646440 116 16732707142474810061
11719270 70 17203327775717341350
12166972 35 8286195050678980975
12236239 1 18130785677138408166
125118 31 18410013196068330757
13167372 99 18341334396735294472
13533116 47 18041561339078412034
13617811 41 16343706543012463024
14068700 675 13406798818110462599
14170010 4 17822012008379146926
14251757 52 17703785951240267128
14251764 18 17989203742319881579
14251764 46 15936410031161154411
14294032 229 17418375757815600769
14429380 56 18410567414157905005
14849402 71 18340771545656246529
14856354 85 17418091049397910093
15131766 46 18192989555005417172
15183329 4 17418096524853653305
15301273 46 16588021299194796423
15348495 7 17386016125518799081
15419008 47 17095517392444349621
15419008 91 16588295116714350309
15475509 35 16081914968329058458
15510794 2 17603304852433052491
1577012 14 18131068246714412631
15840311 113 18201437009027240832
15849732 13 17385444310953741391
16120349 18 18408598180126286557
16989713 51 16342844586827566111
17093844 174 17313104151750002553
18335252 114 18273496788786745732
20157964 124 18409167701859809450
2026 5 10015047330469280004
20771845 171 17846505820590555126
21095086 128 10159691405497151485
21150785 3 15051735300414553245
21344244 78 18198326387642400938
21792934 111 17313103043205706013
22122407 14 18270413783620028280
22224240 67 17822008718276456011
22956985 138 13264329521768996696
23081809 10 17988918972823972511
23522609 53 17845393127492155641
23576562 1 17130416003036716061
255183 451 17843132403222018318
3092352 35 18131630088529985158
3383291 50 15791742923093275713
397830 11 17605005869349882699
4073 2 17895760711087836674
4325135 7 18272369771924343709
4340502 62 17967533476196287946
445580 37 15913336775684219587
45377200 153 11815314037313245557
5758199 1 17561365067712495687
59520757 100 15984529126494812564
59755656 215 14549024264420999485

> <PUBCHEM_SHAPE_MULTIPOLES>
528.72
26.29
1.64
1.31
33.83
0.41
-0.03
6.76
-2.14
-4.5
0.06
1.76
-0.12
-1.46

> <PUBCHEM_SHAPE_SELFOVERLAP>
1159.601

> <PUBCHEM_SHAPE_VOLUME>
287

> <PUBCHEM_COORDINATE_TYPE>
2
5
10

$$$$
49830368
  -OEChem-05102415013D

 51 55  0     0  0  0  0  0  0999 V2000
    6.3142    1.3254    0.4589 S   0  0  0  0  0  0  0  0  0  0  0  0
   -2.5724   -0.9363    0.2685 O   0  0  0  0  0  0  0  0  0  0  0  0
   -1.7260    1.2053   -0.1631 N   0  0  0  0  0  0  0  0  0  0  0  0
    7.1399   -1.1667    0.1014 N   0  0  0  0  0  0  0  0  0  0  0  0
    5.5366   -2.9065   -0.3845 N   0  0  0  0  0  0  0  0  0  0  0  0
    3.2710   -2.5334   -0.7318 N   0  0  0  0  0  0  0  0  0  0  0  0
   -4.0097    0.8578   -0.1603 N   0  0  0  0  0  0  0  0  0  0  0  0
    2.8176    3.1174   -0.3797 C   0  0  0  0  0  0  0  0  0  0  0  0
    3.8963    0.4794    0.1463 C   0  0  0  0  0  0  0  0  0  0  0  0
    4.0870    3.0077    0.4737 C   0  0  0  0  0  0  0  0  0  0  0  0
    1.9005    1.9288   -0.1724 C   0  0  0  0  0  0  0  0  0  0  0  0
    2.4365    0.6402    0.0750 C   0  0  0  0  0  0  0  0  0  0  0  0
    4.6480    1.6264    0.3469 C   0  0  0  0  0  0  0  0  0  0  0  0
    4.7444   -0.6789   -0.0107 C   0  0  0  0  0  0  0  0  0  0  0  0
    0.5130    2.1033   -0.2686 C   0  0  0  0  0  0  0  0  0  0  0  0
    1.5571   -0.4275    0.2870 C   0  0  0  0  0  0  0  0  0  0  0  0
    6.0830   -0.3336    0.1629 C   0  0  0  0  0  0  0  0  0  0  0  0
   -0.3453    1.0228   -0.0807 C   0  0  0  0  0  0  0  0  0  0  0  0
    0.1753   -0.2363    0.2049 C   0  0  0  0  0  0  0  0  0  0  0  0
    4.5119   -2.0296   -0.3085 C   0  0  0  0  0  0  0  0  0  0  0  0
    6.7746   -2.4281   -0.1723 C   0  0  0  0  0  0  0  0  0  0  0  0
   -2.7560    0.2486    0.0094 C   0  0  0  0  0  0  0  0  0  0  0  0
   -5.2882    0.2585   -0.0721 C   0  0  0  0  0  0  0  0  0  0  0  0
   -6.4347    1.0273   -0.2730 C   0  0  0  0  0  0  0  0  0  0  0  0
   -5.4023   -1.1016    0.2157 C   0  0  0  0  0  0  0  0  0  0  0  0
   -7.6951    0.4360   -0.1862 C   0  0  0  0  0  0  0  0  0  0  0  0
   -6.6626   -1.6928    0.3025 C   0  0  0  0  0  0  0  0  0  0  0  0
   -7.8090   -0.9241    0.1015 C   0  0  0  0  0  0  0  0  0  0  0  0
   -8.9209    1.2579   -0.4010 C   0  0  0  0  0  0  0  0  0  0  0  0
   -6.7850   -3.1472    0.6101 C   0  0  0  0  0  0  0  0  0  0  0  0
    2.3027    4.0523   -0.1292 H   0  0  0  0  0  0  0  0  0  0  0  0
    3.0810    3.1594   -1.4444 H   0  0  0  0  0  0  0  0  0  0  0  0
    4.8063    3.7720    0.1588 H   0  0  0  0  0  0  0  0  0  0  0  0
    3.8452    3.1937    1.5280 H   0  0  0  0  0  0  0  0  0  0  0  0
    0.1082    3.0900   -0.4833 H   0  0  0  0  0  0  0  0  0  0  0  0
    1.8893   -1.3839    0.6690 H   0  0  0  0  0  0  0  0  0  0  0  0
   -0.4251   -1.1109    0.4122 H   0  0  0  0  0  0  0  0  0  0  0  0
   -2.0298    2.1531   -0.3722 H   0  0  0  0  0  0  0  0  0  0  0  0
    7.5788   -3.1526   -0.2339 H   0  0  0  0  0  0  0  0  0  0  0  0
    3.2330   -3.5162   -0.9728 H   0  0  0  0  0  0  0  0  0  0  0  0
    2.6214   -1.9150   -1.1958 H   0  0  0  0  0  0  0  0  0  0  0  0
   -4.0088    1.8522   -0.3733 H   0  0  0  0  0  0  0  0  0  0  0  0
   -6.3468    2.0884   -0.4957 H   0  0  0  0  0  0  0  0  0  0  0  0
   -4.5570   -1.7545    0.3803 H   0  0  0  0  0  0  0  0  0  0  0  0
   -8.7924   -1.3834    0.1689 H   0  0  0  0  0  0  0  0  0  0  0  0
   -9.7287    0.6574   -0.8330 H   0  0  0  0  0  0  0  0  0  0  0  0
   -8.7279    2.0817   -1.0967 H   0  0  0  0  0  0  0  0  0  0  0  0
   -9.2644    1.6757    0.5505 H   0  0  0  0  0  0  0  0  0  0  0  0
   -7.7955   -3.4057    0.9443 H   0  0  0  0  0  0  0  0  0  0  0  0
   -6.0977   -3.4324    1.4138 H   0  0  0  0  0  0  0  0  0  0  0  0
   -6.5557   -3.7404   -0.2809 H   0  0  0  0  0  0  0  0  0  0  0  0
  1 13  1  0  0  0  0
  1 17  1  0  0  0  0
  2 22  2  0  0  0  0
  3 18  1  0  0  0  0
  3 22  1  0  0  0  0
  3 38  1  0  0  0  0
  4 17  2  0  0  0  0
  4 21  1  0  0  0  0
  5 20  1  0  0  0  0
  5 21  2  0  0  0  0
  6 20  1  0  0  0  0
  6 40  1  0  0  0  0
  6 41  1  0  0  0  0
  7 22  1  0  0  0  0
  7 23  1  0  0  0  0
  7 42  1  0  0  0  0
  8 10  1  0  0  0  0
  8 11  1  0  0  0  0
  8 31  1  0  0  0  0
  8 32  1  0  0  0  0
  9 12  1  0  0  0  0
  9 13  2  0  0  0  0
  9 14  1  0  0  0  0
 10 13  1  0  0  0  0
 10 33  1  0  0  0  0
 10 34  1  0  0  0  0
 11 12  2  0  0  0  0
 11 15  1  0  0  0  0
 12 16  1  0  0  0  0
 14 17  1  0  0  0  0
 14 20  2  0  0  0  0
 15 18  2  0  0  0  0
 15 35  1  0  0  0  0
 16 19  2  0  0  0  0
 16 36  1  0  0  0  0
 18 19  1  0  0  0  0
 19 37  1  0  0  0  0
 21 39  1  0  0  0  0
 23 24  2  0  0  0  0
 23 25  1  0  0  0  0
 24 26  1  0  0  0  0
 24 43  1  0  0  0  0
 25 27  2  0  0  0  0
 25 44  1  0  0  0  0
 26 28  2  0  0  0  0
 26 29  1  0  0  0  0
 27 28  1  0  0  0  0
 27 30  1  0  0  0  0
 28 45  1  0  0  0  0
 29 46  1  0  0  0  0
 29 47  1  0  0  0  0
 29 48  1  0  0  0  0
 30 49  1  0  0  0  0
 30 50  1  0  0  0  0
 30 51  1  0  0  0  0
M  END
> <PUBCHEM_COMPOUND_CID>
49830368

> <PUBCHEM_CONFORMER_RMSD>
0.8

> <PUBCHEM_CONFORMER_DIVERSEORDER>
1
8
7
13
6
2
9
11
4
3
14
10
5
16
15
12

> <PUBCHEM_MMFF94_PARTIAL_CHARGES>
40
1 -0.08
10 0.18
11 -0.14
12 0.05
13 -0.14
15 -0.15
16 -0.15
17 0.3
18 0.12
19 -0.15
2 -0.57
20 0.41
21 0.47
22 0.69
23 0.12
24 -0.15
25 -0.15
26 -0.14
27 -0.14
28 -0.15
29 0.14
3 -0.55
30 0.14
35 0.15
36 0.15
37 0.15
38 0.37
39 0.15
4 -0.57
40 0.4
41 0.4
42 0.37
43 0.15
44 0.15
45 0.15
5 -0.62
6 -0.9
7 -0.55
8 0.14
9 -0.05

> <PUBCHEM_EFFECTIVE_ROTOR_COUNT>
4.4

> <PUBCHEM_PHARMACOPHORE_FEATURES>
12
1 2 acceptor
1 3 donor
1 4 acceptor
1 6 cation
1 6 donor
1 7 donor
3 4 5 21 cation
5 1 9 13 14 17 rings
6 11 12 15 16 18 19 rings
6 23 24 25 26 27 28 rings
6 4 5 14 17 20 21 rings
6 8 9 10 11 12 13 rings

> <PUBCHEM_HEAVY_ATOM_COUNT>
30

> <PUBCHEM_ATOM_DEF_STEREO_COUNT>
0

> <PUBCHEM_ATOM_UDEF_STEREO_COUNT>
0

> <PUBCHEM_BOND_DEF_STEREO_COUNT>
0

> <PUBCHEM_BOND_UDEF_STEREO_COUNT>
0

> <PUBCHEM_ISOTOPIC_ATOM_COUNT>
0

> <PUBCHEM_COMPONENT_COUNT>
1

> <PUBCHEM_CACTVS_TAUTO_COUNT>
12

> <PUBCHEM_CONFORMER_ID>
02F859E000000001

> <PUBCHEM_MMFF94_ENERGY>
100.49

> <PUBCHEM_FEATURE_SELFOVERLAP>
61.109

> <PUBCHEM_SHAPE_FINGERPRINT>
10 15 11599997752131791420
10316853 100 18408325501707269842
10411042 1 18195809571287878102
10580692 12 18410292506682055273
11315181 36 17988926691824254249
11409948 8 18270949187029878002
117089 54 17770512941377973798
11719270 70 18131350808566119999
11991303 11 13768213830646776777
12166972 35 18412828005548462913
12522641 24 17632569466528566640
13383665 225 17894927230109324572
13533116 47 18272368693850882624
13685833 64 18410575076110132560
13782708 43 18113335319145376971
13811026 1 18408884049345229195
13885169 127 18409446956623433517
13989917 61 18412267259382795046
14170010 4 18411698790416938648
14400156 413 18270950340768209776
14933364 13 18408322203219514889
15183329 4 18334575724887446265
15352257 5 18408605868434523607
15361156 5 17968386740078866015
15419008 47 17749383746158273853
15419008 91 18188188979996363309
15510794 2 18334577954635050475
19841028 212 18336262337244563010
20028762 73 18343303643604367758
21049683 271 18410015434448074716
21130935 74 18340770442107386859
21197605 99 18341897441421011590
21267235 1 18341615880855385828
21315763 28 18412261753550654345
21792934 111 18271796904686032752
22224240 67 12031783660899425077
23559900 14 18338792425416898009
23569943 247 18046909282116205410
249057 25 17988937660364204785
255183 451 18199759042656102278
3004659 81 18187363233456222049
3103668 31 17823410497103135525
335352 9 18409731759830143980
3633792 109 18412262797127467921
4073 2 18041282187842058299
439807 62 18261956250221939366
46194498 28 17895190030710292924
465052 167 18272371958426421662
58083652 198 16702297988741449937
6441014 3 17332811544084240566
6691757 9 15841548609493373767
9831232 110 18408045095523100262
99344 41 18413106156810998447

> <PUBCHEM_SHAPE_MULTIPOLES>
590.46
26.14
3.26
0.69
39.66
0.77
0.01
9.23
0.28
-3.51
-0.14
-0.04
0.02
1.76

> <PUBCHEM_SHAPE_SELFOVERLAP>
1304.688

> <PUBCHEM_SHAPE_VOLUME>
318.3

> <PUBCHEM_COORDINATE_TYPE>
2
5
10

$$$$
16122934
  -OEChem-05102415013D

 48 51  0     0  0  0  0  0  0999 V2000
    7.1030    1.2618   -1.6504 S   0  0  0  0  0  0  0  0  0  0  0  0
    3.4709    1.7526    1.3050 O   0  0  0  0  0  0  0  0  0  0  0  0
   -3.7905   -0.6017   -1.1815 O   0  0  0  0  0  0  0  0  0  0  0  0
    2.5950    0.5393   -0.4847 N   0  0  0  0  0  0  0  0  0  0  0  0
   -2.8777    0.6121    0.6026 N   0  0  0  0  0  0  0  0  0  0  0  0
   -5.1623    0.2907    0.4890 N   0  0  0  0  0  0  0  0  0  0  0  0
    8.0591   -0.9797   -0.5733 N   0  0  0  0  0  0  0  0  0  0  0  0
    6.6931   -2.2139    1.0045 N   0  0  0  0  0  0  0  0  0  0  0  0
    4.5183   -1.5128    1.6444 N   0  0  0  0  0  0  0  0  0  0  0  0
    4.9673    0.8854   -0.2748 C   0  0  0  0  0  0  0  0  0  0  0  0
    5.8297   -0.2099    0.0459 C   0  0  0  0  0  0  0  0  0  0  0  0
    1.2049    0.5568   -0.2082 C   0  0  0  0  0  0  0  0  0  0  0  0
    7.0299   -0.1133   -0.6464 C   0  0  0  0  0  0  0  0  0  0  0  0
    3.6451    1.1152    0.2517 C   0  0  0  0  0  0  0  0  0  0  0  0
   -1.5093    0.5928    0.3313 C   0  0  0  0  0  0  0  0  0  0  0  0
    5.5339    1.7552   -1.1810 C   0  0  0  0  0  0  0  0  0  0  0  0
    5.6924   -1.3143    0.8931 C   0  0  0  0  0  0  0  0  0  0  0  0
    0.3355   -0.0801   -1.0762 C   0  0  0  0  0  0  0  0  0  0  0  0
    0.7499    1.2114    0.9230 C   0  0  0  0  0  0  0  0  0  0  0  0
   -1.0325   -0.0619   -0.8043 C   0  0  0  0  0  0  0  0  0  0  0  0
   -0.6180    1.2296    1.1949 C   0  0  0  0  0  0  0  0  0  0  0  0
   -6.4548   -0.1093    0.0752 C   0  0  0  0  0  0  0  0  0  0  0  0
   -8.8273   -0.1434    0.4297 C   0  0  0  0  0  0  0  0  0  0  0  0
   -7.5531    0.2501    0.8389 C   0  0  0  0  0  0  0  0  0  0  0  0
   -3.9344    0.0321   -0.1410 C   0  0  0  0  0  0  0  0  0  0  0  0
   -6.5950   -0.8510   -1.0863 C   0  0  0  0  0  0  0  0  0  0  0  0
   -8.9853   -0.8907   -0.7374 C   0  0  0  0  0  0  0  0  0  0  0  0
   -7.8691   -1.2444   -1.4954 C   0  0  0  0  0  0  0  0  0  0  0  0
    7.8027   -1.9936    0.2724 C   0  0  0  0  0  0  0  0  0  0  0  0
  -10.0213    0.2353    1.2395 C   0  0  0  0  0  0  0  0  0  0  0  0
    2.8553    0.0338   -1.3295 H   0  0  0  0  0  0  0  0  0  0  0  0
    5.1058    2.6588   -1.5932 H   0  0  0  0  0  0  0  0  0  0  0  0
    0.6981   -0.5924   -1.9631 H   0  0  0  0  0  0  0  0  0  0  0  0
    1.3694    1.7267    1.6407 H   0  0  0  0  0  0  0  0  0  0  0  0
   -1.6562   -0.5770   -1.5209 H   0  0  0  0  0  0  0  0  0  0  0  0
   -0.9771    1.7435    2.0832 H   0  0  0  0  0  0  0  0  0  0  0  0
   -3.1486    1.1093    1.4474 H   0  0  0  0  0  0  0  0  0  0  0  0
   -7.4287    0.8344    1.7472 H   0  0  0  0  0  0  0  0  0  0  0  0
   -5.1275    0.8324    1.3490 H   0  0  0  0  0  0  0  0  0  0  0  0
   -5.7853   -1.1650   -1.7275 H   0  0  0  0  0  0  0  0  0  0  0  0
   -9.9728   -1.2017   -1.0679 H   0  0  0  0  0  0  0  0  0  0  0  0
   -7.9936   -1.8261   -2.4044 H   0  0  0  0  0  0  0  0  0  0  0  0
    8.5913   -2.7302    0.3795 H   0  0  0  0  0  0  0  0  0  0  0  0
  -10.8226   -0.5039    1.1335 H   0  0  0  0  0  0  0  0  0  0  0  0
  -10.3996    1.2106    0.9174 H   0  0  0  0  0  0  0  0  0  0  0  0
   -9.7741    0.2886    2.3053 H   0  0  0  0  0  0  0  0  0  0  0  0
    3.7387   -0.8750    1.5991 H   0  0  0  0  0  0  0  0  0  0  0  0
    4.4629   -2.3256    2.2439 H   0  0  0  0  0  0  0  0  0  0  0  0
  1 13  1  0  0  0  0
  1 16  1  0  0  0  0
  2 14  2  0  0  0  0
  3 25  2  0  0  0  0
  4 12  1  0  0  0  0
  4 14  1  0  0  0  0
  4 31  1  0  0  0  0
  5 15  1  0  0  0  0
  5 25  1  0  0  0  0
  5 37  1  0  0  0  0
  6 22  1  0  0  0  0
  6 25  1  0  0  0  0
  6 39  1  0  0  0  0
  7 13  2  0  0  0  0
  7 29  1  0  0  0  0
  8 17  1  0  0  0  0
  8 29  2  0  0  0  0
  9 17  1  0  0  0  0
  9 47  1  0  0  0  0
  9 48  1  0  0  0  0
 10 11  1  0  0  0  0
 10 14  1  0  0  0  0
 10 16  2  0  0  0  0
 11 13  1  0  0  0  0
 11 17  2  0  0  0  0
 12 18  2  0  0  0  0
 12 19  1  0  0  0  0
 15 20  2  0  0  0  0
 15 21  1  0  0  0  0
 16 32  1  0  0  0  0
 18 20  1  0  0  0  0
 18 33  1  0  0  0  0
 19 21  2  0  0  0  0
 19 34  1  0  0  0  0
 20 35  1  0  0  0  0
 21 36  1  0  0  0  0
 22 24  1  0  0  0  0
 22 26  2  0  0  0  0
 23 24  2  0  0  0  0
 23 27  1  0  0  0  0
 23 30  1  0  0  0  0
 24 38  1  0  0  0  0
 26 28  1  0  0  0  0
 26 40  1  0  0  0  0
 27 28  2  0  0  0  0
 27 41  1  0  0  0  0
 28 42  1  0  0  0  0
 29 43  1  0  0  0  0
 30 44  1  0  0  0  0
 30 45  1  0  0  0  0
 30 46  1  0  0  0  0
M  END
> <PUBCHEM_COMPOUND_CID>
16122934

> <PUBCHEM_CONFORMER_RMSD>
0.8

> <PUBCHEM_CONFORMER_DIVERSEORDER>
1
44
25
34
41
26
63
50
61
67
40
57
32
55
10
60
9
59
69
13
42
16
66
20
45
62
29
58
35
54
11
31
27
38
18
64
72
39
53
7
68
56
8
43
17
70
48
30
51
12
19
24
65
3
71
52
6
28
14
47
22
15
37
49
21
46
33
4
23
5
36
2

> <PUBCHEM_MMFF94_PARTIAL_CHARGES>
44
1 -0.08
10 -0.09
12 0.12
13 0.3
14 0.72
15 0.12
16 -0.11
17 0.41
18 -0.15
19 -0.15
2 -0.57
20 -0.15
21 -0.15
22 0.12
23 -0.14
24 -0.15
25 0.69
26 -0.15
27 -0.15
28 -0.15
29 0.47
3 -0.57
30 0.14
31 0.37
32 0.15
33 0.15
34 0.15
35 0.15
36 0.15
37 0.37
38 0.15
39 0.37
4 -0.55
40 0.15
41 0.15
42 0.15
43 0.15
47 0.4
48 0.4
5 -0.55
6 -0.55
7 -0.57
8 -0.62
9 -0.9

> <PUBCHEM_EFFECTIVE_ROTOR_COUNT>
7

> <PUBCHEM_PHARMACOPHORE_FEATURES>
13
1 2 acceptor
1 3 acceptor
1 4 donor
1 5 donor
1 6 donor
1 7 acceptor
1 9 cation
1 9 donor
3 7 8 29 cation
5 1 10 11 13 16 rings
6 12 15 18 19 20 21 rings
6 22 23 24 26 27 28 rings
6 7 8 11 13 17 29 rings

> <PUBCHEM_HEAVY_ATOM_COUNT>
30

> <PUBCHEM_ATOM_DEF_STEREO_COUNT>
0

> <PUBCHEM_ATOM_UDEF_STEREO_COUNT>
0

> <PUBCHEM_BOND_DEF_STEREO_COUNT>
0

> <PUBCHEM_BOND_UDEF_STEREO_COUNT>
0

> <PUBCHEM_ISOTOPIC_ATOM_COUNT>
0

> <PUBCHEM_COMPONENT_COUNT>
1

> <PUBCHEM_CACTVS_TAUTO_COUNT>
24

> <PUBCHEM_CONFORMER_ID>
00F6043600000001

> <PUBCHEM_MMFF94_ENERGY>
99.5959

> <PUBCHEM_FEATURE_SELFOVERLAP>
66.101

> <PUBCHEM_SHAPE_FINGERPRINT>
10 15 15410888583141463378
10299344 5 18411982464305816687
10533779 47 14333141805576141175
11135926 11 17203603766964450301
11315181 36 14273449285666837437
11386260 185 17095527331177929724
11607047 74 18060137700822586560
11719270 70 17060341833406394847
12082328 90 17821728322022039997
12089408 11 18273216417874722693
12592606 108 18272086114993606743
12758862 56 17203607121138858787
12838862 33 16128651917543866013
13692114 37 16845567647548322542
14118638 360 14490460963975045661
14251764 18 18413671318498010263
14251764 46 18040718082078359532
14344974 52 14779558910978350638
150020 25 16660648444540584027
15065858 18 13398633836673302709
15131766 46 17555723657570216385
15183329 4 18186516600954916043
15198563 99 16733257950518841549
15301273 46 17022900151424787719
15328684 2 18129665175746865155
15419008 47 16443056227771154173
15461852 350 14201403794435312361
15510794 2 16805327712088062408
15849732 13 16370725950448898807
1754908 1 13901907838898249671
1818759 1 18411704279279823267
19301679 30 17774165570559954318
20105231 36 16588025715085997651
2026 5 18190173491258061410
20771845 140 17632007556353467070
21150785 3 13479134588193986859
21360442 33 16661194846887211530
21360442 67 16950566593027686218
21781051 124 17775007933273067590
21792934 111 14908181941163191321
22224240 67 13039188108869146421
22956985 138 17556311566585676958
23522609 53 18125752095574567928
23576562 1 14996860934536631615
24893992 56 17561080346252088723
249057 3 16950568817646132095
2835820 82 18262516962614295298
3383291 50 16486972925434100175
34797466 226 16805604793809250684
3633792 109 17530964661482558720
397638 26 15697996362474808895
439807 62 18409449180988835298
44389302 135 17845931832677470270
4516262 110 17970641899138369588
45377200 153 17531253924274383875
5219985 9 18272370875916107433
5283156 175 18412546504722196617
5470011 282 17895198839202471564
59520647 119 17822016462371997427
60111433 81 10882562030839528926
6081469 158 18040996237018996580
6126387 218 13110968613914574387
636783 117 16009855127918013130
67123 10 9871746884977691561
68570916 9 12534762998936051825

> <PUBCHEM_SHAPE_MULTIPOLES>
579.61
33.93
1.62
1.4
43.51
0.41
-0.08
10.8
-2.22
-3.96
0.23
0.16
-0.01
-2.92

> <PUBCHEM_SHAPE_SELFOVERLAP>
1263.971

> <PUBCHEM_SHAPE_VOLUME>
314.9

> <PUBCHEM_COORDINATE_TYPE>
2
5
10

$$$$
49830349
  -OEChem-05102415013D

 41 44  0     0  0  0  0  0  0999 V2000
    5.6662   -1.9557    0.9007 S   0  0  0  0  0  0  0  0  0  0  0  0
   -2.9714    0.1180    1.1228 O   0  0  0  0  0  0  0  0  0  0  0  0
   -2.0494   -0.5239   -0.9333 N   0  0  0  0  0  0  0  0  0  0  0  0
    6.8397    0.3950    0.4586 N   0  0  0  0  0  0  0  0  0  0  0  0
    5.5004    2.2624   -0.3146 N   0  0  0  0  0  0  0  0  0  0  0  0
    3.1661    2.0974   -0.7018 N   0  0  0  0  0  0  0  0  0  0  0  0
   -4.3309   -0.2125   -0.7509 N   0  0  0  0  0  0  0  0  0  0  0  0
    3.4541   -0.8656    0.1841 C   0  0  0  0  0  0  0  0  0  0  0  0
    2.0441   -0.7787   -0.1019 C   0  0  0  0  0  0  0  0  0  0  0  0
    4.4422    0.1634    0.0785 C   0  0  0  0  0  0  0  0  0  0  0  0
    5.6940   -0.3137    0.4448 C   0  0  0  0  0  0  0  0  0  0  0  0
    1.1494   -0.4149    0.9046 C   0  0  0  0  0  0  0  0  0  0  0  0
    1.5742   -1.0577   -1.3852 C   0  0  0  0  0  0  0  0  0  0  0  0
    3.9825   -2.0619    0.6182 C   0  0  0  0  0  0  0  0  0  0  0  0
   -0.6849   -0.6095   -0.6557 C   0  0  0  0  0  0  0  0  0  0  0  0
    4.3821    1.5057   -0.3097 C   0  0  0  0  0  0  0  0  0  0  0  0
   -0.2151   -0.3303    0.6278 C   0  0  0  0  0  0  0  0  0  0  0  0
    0.2098   -0.9732   -1.6622 C   0  0  0  0  0  0  0  0  0  0  0  0
   -3.1088   -0.1742   -0.0608 C   0  0  0  0  0  0  0  0  0  0  0  0
    6.6478    1.6669    0.0657 C   0  0  0  0  0  0  0  0  0  0  0  0
   -5.6238    0.0677   -0.2490 C   0  0  0  0  0  0  0  0  0  0  0  0
   -6.7326   -0.0230   -1.0904 C   0  0  0  0  0  0  0  0  0  0  0  0
   -5.7899    0.4347    1.0864 C   0  0  0  0  0  0  0  0  0  0  0  0
   -8.0076    0.2531   -0.5963 C   0  0  0  0  0  0  0  0  0  0  0  0
   -7.0647    0.7107    1.5805 C   0  0  0  0  0  0  0  0  0  0  0  0
   -8.1736    0.6201    0.7391 C   0  0  0  0  0  0  0  0  0  0  0  0
    1.5007   -0.1931    1.9098 H   0  0  0  0  0  0  0  0  0  0  0  0
    2.2584   -1.3414   -2.1815 H   0  0  0  0  0  0  0  0  0  0  0  0
    3.4697   -2.9997    0.7866 H   0  0  0  0  0  0  0  0  0  0  0  0
   -0.8418   -0.0423    1.4595 H   0  0  0  0  0  0  0  0  0  0  0  0
   -0.1423   -1.1929   -2.6669 H   0  0  0  0  0  0  0  0  0  0  0  0
   -2.3150   -0.7419   -1.8905 H   0  0  0  0  0  0  0  0  0  0  0  0
    7.5312    2.2957    0.0531 H   0  0  0  0  0  0  0  0  0  0  0  0
    2.2971    1.5889   -0.7204 H   0  0  0  0  0  0  0  0  0  0  0  0
    3.1749    3.0717   -0.9739 H   0  0  0  0  0  0  0  0  0  0  0  0
   -4.2924   -0.4726   -1.7332 H   0  0  0  0  0  0  0  0  0  0  0  0
   -6.6172   -0.3078   -2.1330 H   0  0  0  0  0  0  0  0  0  0  0  0
   -4.9837    0.5272    1.8000 H   0  0  0  0  0  0  0  0  0  0  0  0
   -8.8710    0.1825   -1.2514 H   0  0  0  0  0  0  0  0  0  0  0  0
   -7.1956    0.9964    2.6203 H   0  0  0  0  0  0  0  0  0  0  0  0
   -9.1662    0.8351    1.1238 H   0  0  0  0  0  0  0  0  0  0  0  0
  1 11  1  0  0  0  0
  1 14  1  0  0  0  0
  2 19  2  0  0  0  0
  3 15  1  0  0  0  0
  3 19  1  0  0  0  0
  3 32  1  0  0  0  0
  4 11  2  0  0  0  0
  4 20  1  0  0  0  0
  5 16  1  0  0  0  0
  5 20  2  0  0  0  0
  6 16  1  0  0  0  0
  6 34  1  0  0  0  0
  6 35  1  0  0  0  0
  7 19  1  0  0  0  0
  7 21  1  0  0  0  0
  7 36  1  0  0  0  0
  8  9  1  0  0  0  0
  8 10  1  0  0  0  0
  8 14  2  0  0  0  0
  9 12  2  0  0  0  0
  9 13  1  0  0  0  0
 10 11  1  0  0  0  0
 10 16  2  0  0  0  0
 12 17  1  0  0  0  0
 12 27  1  0  0  0  0
 13 18  2  0  0  0  0
 13 28  1  0  0  0  0
 14 29  1  0  0  0  0
 15 17  2  0  0  0  0
 15 18  1  0  0  0  0
 17 30  1  0  0  0  0
 18 31  1  0  0  0  0
 20 33  1  0  0  0  0
 21 22  2  0  0  0  0
 21 23  1  0  0  0  0
 22 24  1  0  0  0  0
 22 37  1  0  0  0  0
 23 25  2  0  0  0  0
 23 38  1  0  0  0  0
 24 26  2  0  0  0  0
 24 39  1  0  0  0  0
 25 26  1  0  0  0  0
 25 40  1  0  0  0  0
 26 41  1  0  0  0  0
M  END
> <PUBCHEM_COMPOUND_CID>
49830349

> <PUBCHEM_CONFORMER_RMSD>
0.8

> <PUBCHEM_CONFORMER_DIVERSEORDER>
1
5
14
4
6
7
2
8
12
13
3
11
10
9

> <PUBCHEM_MMFF94_PARTIAL_CHARGES>
40
1 -0.08
11 0.3
12 -0.15
13 -0.15
14 -0.11
15 0.12
16 0.41
17 -0.15
18 -0.15
19 0.69
2 -0.57
20 0.47
21 0.12
22 -0.15
23 -0.15
24 -0.15
25 -0.15
26 -0.15
27 0.15
28 0.15
29 0.15
3 -0.55
30 0.15
31 0.15
32 0.37
33 0.15
34 0.4
35 0.4
36 0.37
37 0.15
38 0.15
39 0.15
4 -0.57
40 0.15
41 0.15
5 -0.62
6 -0.9
7 -0.55
8 -0.05
9 0.05

> <PUBCHEM_EFFECTIVE_ROTOR_COUNT>
5

> <PUBCHEM_PHARMACOPHORE_FEATURES>
11
1 2 acceptor
1 3 donor
1 4 acceptor
1 6 cation
1 6 donor
1 7 donor
3 4 5 20 cation
5 1 8 10 11 14 rings
6 21 22 23 24 25 26 rings
6 4 5 10 11 16 20 rings
6 9 12 13 15 17 18 rings

> <PUBCHEM_HEAVY_ATOM_COUNT>
26

> <PUBCHEM_ATOM_DEF_STEREO_COUNT>
0

> <PUBCHEM_ATOM_UDEF_STEREO_COUNT>
0

> <PUBCHEM_BOND_DEF_STEREO_COUNT>
0

> <PUBCHEM_BOND_UDEF_STEREO_COUNT>
0

> <PUBCHEM_ISOTOPIC_ATOM_COUNT>
0

> <PUBCHEM_COMPONENT_COUNT>
1

> <PUBCHEM_CACTVS_TAUTO_COUNT>
12

> <PUBCHEM_CONFORMER_ID>
02F859CD00000001

> <PUBCHEM_MMFF94_ENERGY>
82.4638

> <PUBCHEM_FEATURE_SELFOVERLAP>
55.951

> <PUBCHEM_SHAPE_FINGERPRINT>
10 15 17530965799922912979
10162869 55 18335692893009945983
10299344 5 18131067130645433555
10411042 1 17974562504479340682
10554248 39 17702938111752950493
106641 1 14634870877523791116
10906281 52 17774736311341574135
11315181 36 18272368682041744035
11524674 6 16515409569331265195
11646440 116 16660368069381482021
11719270 70 17131832032205583511
12236239 1 18202560696535029902
125118 31 18410294671171642005
12516196 113 16153428333416508271
12730499 353 17748822995628670258
13167372 99 18341332197453550032
13533116 47 18041560239376828266
14068700 675 13334740120323961879
14170010 4 17894349977818847710
14251757 52 17703785951050382576
14251764 18 18060134341287021363
14294032 229 17417809509453903197
14341114 176 18186519895411096932
14849402 71 18340488971363067377
14933364 13 18259702294255290373
15183329 4 17346883355872444873
15301273 46 16443059487218346063
15348495 7 17386296496852425441
15419008 47 17095235913230680941
15419008 91 16443333300416429005
15475509 35 16081633488957147226
1577012 14 18202560700428934415
15840311 113 18342176696142067532
15849732 13 13542459874027755721
16120349 18 18408598180458628397
16989713 51 16414902185218496631
18335252 114 18202281411981344148
20157964 124 18408603652294520602
20281389 69 18408321069121204661
21033648 29 17532090669328047816
21150785 3 14117800223823940213
21344244 78 18198043817396217322
21521721 280 18334013895393280403
22122407 14 18270693059330825281
22224240 67 18260827103014203635
22956985 138 13192273022810592184
23081809 10 18060412517576192967
23522609 53 17916604101913861265
23576562 1 17058919155818615909
255183 451 17843412778623804166
3383291 50 15647345152044719737
397830 11 17604723290719531763
4073 2 17895197761013076578
4325135 7 18272932717677775637
4340502 62 17894911832519224602
445580 37 15913054201301356699
45377200 153 11743536814529881165
465052 167 12107789605434572002
5758199 1 17632859711876104079
59682541 35 16153429480109635012

> <PUBCHEM_SHAPE_MULTIPOLES>
508.14
24.12
1.68
1.27
33
0.42
0.06
7.02
-4.67
-4.28
0.03
1.24
-0.19
-1.47

> <PUBCHEM_SHAPE_SELFOVERLAP>
1116.145

> <PUBCHEM_SHAPE_VOLUME>
274.6

> <PUBCHEM_COORDINATE_TYPE>
2
5
10

$$$$
49830381
  -OEChem-05102415013D

 51 55  0     0  0  0  0  0  0999 V2000
    6.3521    1.4718    0.3509 S   0  0  0  0  0  0  0  0  0  0  0  0
   -2.4246   -1.1899    0.4322 O   0  0  0  0  0  0  0  0  0  0  0  0
   -1.6882    0.9818   -0.0482 N   0  0  0  0  0  0  0  0  0  0  0  0
    7.2801   -0.9851    0.0007 N   0  0  0  0  0  0  0  0  0  0  0  0
    5.7448   -2.8015   -0.4200 N   0  0  0  0  0  0  0  0  0  0  0  0
    3.4560   -2.5354   -0.7093 N   0  0  0  0  0  0  0  0  0  0  0  0
   -3.9529    0.5319    0.0216 N   0  0  0  0  0  0  0  0  0  0  0  0
    2.7565    3.0934   -0.4126 C   0  0  0  0  0  0  0  0  0  0  0  0
    4.0522    3.0522    0.4068 C   0  0  0  0  0  0  0  0  0  0  0  0
    3.9675    0.5138    0.1151 C   0  0  0  0  0  0  0  0  0  0  0  0
    1.9002    1.8675   -0.1659 C   0  0  0  0  0  0  0  0  0  0  0  0
    2.5005    0.6077    0.0821 C   0  0  0  0  0  0  0  0  0  0  0  0
    4.6716    1.6960    0.2811 C   0  0  0  0  0  0  0  0  0  0  0  0
    4.8628   -0.6071   -0.0513 C   0  0  0  0  0  0  0  0  0  0  0  0
    0.5041    1.9781   -0.2260 C   0  0  0  0  0  0  0  0  0  0  0  0
    1.6765   -0.4956    0.3309 C   0  0  0  0  0  0  0  0  0  0  0  0
    6.1885   -0.1997    0.0812 C   0  0  0  0  0  0  0  0  0  0  0  0
   -0.2989    0.8627   -0.0017 C   0  0  0  0  0  0  0  0  0  0  0  0
    0.2858   -0.3678    0.2846 C   0  0  0  0  0  0  0  0  0  0  0  0
    4.6838   -1.9707   -0.3264 C   0  0  0  0  0  0  0  0  0  0  0  0
    6.9651   -2.2651   -0.2477 C   0  0  0  0  0  0  0  0  0  0  0  0
   -2.6687   -0.0180    0.1640 C   0  0  0  0  0  0  0  0  0  0  0  0
   -5.2001   -0.1232    0.1521 C   0  0  0  0  0  0  0  0  0  0  0  0
   -7.6148   -0.0564    0.1026 C   0  0  0  0  0  0  0  0  0  0  0  0
   -6.3855    0.5902   -0.0263 C   0  0  0  0  0  0  0  0  0  0  0  0
   -8.8821    0.7061   -0.0881 C   0  0  0  0  0  0  0  0  0  0  0  0
   -5.2441   -1.4832    0.4593 C   0  0  0  0  0  0  0  0  0  0  0  0
   -7.6588   -1.4164    0.4098 C   0  0  0  0  0  0  0  0  0  0  0  0
   -6.4735   -2.1298    0.5879 C   0  0  0  0  0  0  0  0  0  0  0  0
   -9.3561    0.6916   -1.5393 C   0  0  0  0  0  0  0  0  0  0  0  0
    2.2067    4.0074   -0.1593 H   0  0  0  0  0  0  0  0  0  0  0  0
    2.9890    3.1332   -1.4846 H   0  0  0  0  0  0  0  0  0  0  0  0
    4.7273    3.8439    0.0630 H   0  0  0  0  0  0  0  0  0  0  0  0
    3.8306    3.2411    1.4650 H   0  0  0  0  0  0  0  0  0  0  0  0
    0.0493    2.9427   -0.4413 H   0  0  0  0  0  0  0  0  0  0  0  0
    2.0619   -1.4309    0.7151 H   0  0  0  0  0  0  0  0  0  0  0  0
   -0.2685   -1.2658    0.5188 H   0  0  0  0  0  0  0  0  0  0  0  0
   -2.0402    1.9121   -0.2602 H   0  0  0  0  0  0  0  0  0  0  0  0
    7.7994   -2.9534   -0.3227 H   0  0  0  0  0  0  0  0  0  0  0  0
    3.4563   -3.5221   -0.9374 H   0  0  0  0  0  0  0  0  0  0  0  0
    2.7668   -1.9531   -1.1627 H   0  0  0  0  0  0  0  0  0  0  0  0
   -4.0028    1.5223   -0.2033 H   0  0  0  0  0  0  0  0  0  0  0  0
   -6.3517    1.6503   -0.2677 H   0  0  0  0  0  0  0  0  0  0  0  0
   -8.7477    1.7444    0.2403 H   0  0  0  0  0  0  0  0  0  0  0  0
   -9.6684    0.2923    0.5555 H   0  0  0  0  0  0  0  0  0  0  0  0
   -4.3735   -2.1045    0.6123 H   0  0  0  0  0  0  0  0  0  0  0  0
   -8.6101   -1.9322    0.5111 H   0  0  0  0  0  0  0  0  0  0  0  0
   -6.5091   -3.1889    0.8266 H   0  0  0  0  0  0  0  0  0  0  0  0
   -9.5434   -0.3309   -1.8844 H   0  0  0  0  0  0  0  0  0  0  0  0
  -10.2862    1.2600   -1.6384 H   0  0  0  0  0  0  0  0  0  0  0  0
   -8.6102    1.1403   -2.2040 H   0  0  0  0  0  0  0  0  0  0  0  0
  1 13  1  0  0  0  0
  1 17  1  0  0  0  0
  2 22  2  0  0  0  0
  3 18  1  0  0  0  0
  3 22  1  0  0  0  0
  3 38  1  0  0  0  0
  4 17  2  0  0  0  0
  4 21  1  0  0  0  0
  5 20  1  0  0  0  0
  5 21  2  0  0  0  0
  6 20  1  0  0  0  0
  6 40  1  0  0  0  0
  6 41  1  0  0  0  0
  7 22  1  0  0  0  0
  7 23  1  0  0  0  0
  7 42  1  0  0  0  0
  8  9  1  0  0  0  0
  8 11  1  0  0  0  0
  8 31  1  0  0  0  0
  8 32  1  0  0  0  0
  9 13  1  0  0  0  0
  9 33  1  0  0  0  0
  9 34  1  0  0  0  0
 10 12  1  0  0  0  0
 10 13  2  0  0  0  0
 10 14  1  0  0  0  0
 11 12  2  0  0  0  0
 11 15  1  0  0  0  0
 12 16  1  0  0  0  0
 14 17  1  0  0  0  0
 14 20  2  0  0  0  0
 15 18  2  0  0  0  0
 15 35  1  0  0  0  0
 16 19  2  0  0  0  0
 16 36  1  0  0  0  0
 18 19  1  0  0  0  0
 19 37  1  0  0  0  0
 21 39  1  0  0  0  0
 23 25  1  0  0  0  0
 23 27  2  0  0  0  0
 24 25  2  0  0  0  0
 24 26  1  0  0  0  0
 24 28  1  0  0  0  0
 25 43  1  0  0  0  0
 26 30  1  0  0  0  0
 26 44  1  0  0  0  0
 26 45  1  0  0  0  0
 27 29  1  0  0  0  0
 27 46  1  0  0  0  0
 28 29  2  0  0  0  0
 28 47  1  0  0  0  0
 29 48  1  0  0  0  0
 30 49  1  0  0  0  0
 30 50  1  0  0  0  0
 30 51  1  0  0  0  0
M  END
> <PUBCHEM_COMPOUND_CID>
49830381

> <PUBCHEM_CONFORMER_RMSD>
0.8

> <PUBCHEM_CONFORMER_DIVERSEORDER>
1
17
16
7
14
27
20
4
22
13
30
18
9
15
21
12
5
19
23
3
29
28
8
2
26
24
10
11
25
6

> <PUBCHEM_MMFF94_PARTIAL_CHARGES>
40
1 -0.08
10 -0.05
11 -0.14
12 0.05
13 -0.14
15 -0.15
16 -0.15
17 0.3
18 0.12
19 -0.15
2 -0.57
20 0.41
21 0.47
22 0.69
23 0.12
24 -0.14
25 -0.15
26 0.14
27 -0.15
28 -0.15
29 -0.15
3 -0.55
35 0.15
36 0.15
37 0.15
38 0.37
39 0.15
4 -0.57
40 0.4
41 0.4
42 0.37
43 0.15
46 0.15
47 0.15
48 0.15
5 -0.62
6 -0.9
7 -0.55
8 0.14
9 0.18

> <PUBCHEM_EFFECTIVE_ROTOR_COUNT>
5.4

> <PUBCHEM_PHARMACOPHORE_FEATURES>
13
1 2 acceptor
1 3 donor
1 30 hydrophobe
1 4 acceptor
1 6 cation
1 6 donor
1 7 donor
3 4 5 21 cation
5 1 10 13 14 17 rings
6 11 12 15 16 18 19 rings
6 23 24 25 27 28 29 rings
6 4 5 14 17 20 21 rings
6 8 9 10 11 12 13 rings

> <PUBCHEM_HEAVY_ATOM_COUNT>
30

> <PUBCHEM_ATOM_DEF_STEREO_COUNT>
0

> <PUBCHEM_ATOM_UDEF_STEREO_COUNT>
0

> <PUBCHEM_BOND_DEF_STEREO_COUNT>
0

> <PUBCHEM_BOND_UDEF_STEREO_COUNT>
0

> <PUBCHEM_ISOTOPIC_ATOM_COUNT>
0

> <PUBCHEM_COMPONENT_COUNT>
1

> <PUBCHEM_CACTVS_TAUTO_COUNT>
12

> <PUBCHEM_CONFORMER_ID>
02F859ED00000001

> <PUBCHEM_MMFF94_ENERGY>
97.4707

> <PUBCHEM_FEATURE_SELFOVERLAP>
66.183

> <PUBCHEM_SHAPE_FINGERPRINT>
10 15 11455884763184692631
10316853 100 18408608080564461082
10411042 1 18267586802766763030
10533779 47 18336842931086894187
10580692 12 18410293614736079937
11315181 36 18272374200948060873
11409948 8 18270950286578474474
117089 54 17912939283909677374
11719270 70 18131634486840032399
11991303 11 13768214934353145081
12522641 24 17561075926287467944
13008946 170 18127122202710460400
13383665 225 17822025215341260476
13533116 47 18272089426492558976
13617811 41 16081370739178048870
13685833 64 18410294705066559130
13811026 1 18409163290612021773
13885169 127 18409166589753475505
14117953 113 18272940397475330214
14170010 4 18411699898513148352
14216079 64 18409729530415127894
14251764 18 17846782905804454049
14400156 413 18270389602765098449
14933364 13 18335420188541082641
15152005 77 17558831681200873014
15183329 4 18333449829270276755
15352257 5 18408324393331257907
15419008 47 17749102279887477357
15419008 91 18042387158405624125
15461852 350 16774074090865585117
15510794 2 18334297587717866635
16120349 18 18272645766238051953
19841028 212 18335419016094762850
20028762 73 18343586218182402918
20771845 140 16271923784090081646
21130935 74 18341054124702718379
21267235 1 18341335514017147774
21315763 28 18412545427513606481
21792934 111 18342729711324339584
22224240 67 12319735860630285037
23559900 14 18337951298145878209
23569943 247 18118686504984056786
249057 25 17917162649509973457
255183 451 18128546964422767102
28498 318 18408602548466625173
3004659 81 18187364341515456577
3103668 31 17823129035011274781
335352 9 18410014334281526644
3633792 109 18411700959580963401
4073 2 17968944235376595891
439807 62 18187646865097527722
46194498 28 17894629288443830332
465052 167 18272092686857663070
58083652 198 17203608225029837793
6441014 3 17332249697979638198
6691757 9 15913329130996465055
9831232 110 18334862718396511543
99344 41 18342457041442249855

> <PUBCHEM_SHAPE_MULTIPOLES>
590.46
27.61
2.91
0.77
49.23
0.03
0.11
-7.24
2.65
-5.25
0.22
0.71
0.01
1.89

> <PUBCHEM_SHAPE_SELFOVERLAP>
1301.487

> <PUBCHEM_SHAPE_VOLUME>
318.5

> <PUBCHEM_COORDINATE_TYPE>
2
5
10

$$$$
49830378
  -OEChem-05102415013D

 51 54  0     0  0  0  0  0  0999 V2000
   -7.3493   -1.5053    1.1682 S   0  0  0  0  0  0  0  0  0  0  0  0
   -3.2202    0.9155    1.1262 O   0  0  0  0  0  0  0  0  0  0  0  0
    3.3937    0.6869    0.4435 O   0  0  0  0  0  0  0  0  0  0  0  0
   -2.8693   -1.1845    0.1397 N   0  0  0  0  0  0  0  0  0  0  0  0
    4.9487   -0.8470   -0.3919 N   0  0  0  0  0  0  0  0  0  0  0  0
    2.6995   -1.3720   -0.4330 N   0  0  0  0  0  0  0  0  0  0  0  0
   -8.4984    0.4179   -0.2736 N   0  0  0  0  0  0  0  0  0  0  0  0
   -7.1127    2.1336   -1.2811 N   0  0  0  0  0  0  0  0  0  0  0  0
   -4.7524    2.1838   -1.0413 N   0  0  0  0  0  0  0  0  0  0  0  0
   -5.0930   -0.3857    0.6668 C   0  0  0  0  0  0  0  0  0  0  0  0
   -6.0760    0.4170    0.0070 C   0  0  0  0  0  0  0  0  0  0  0  0
    6.1799   -0.1781   -0.1956 C   0  0  0  0  0  0  0  0  0  0  0  0
    7.4127    1.7515    0.5749 C   0  0  0  0  0  0  0  0  0  0  0  0
    8.5879   -0.1282   -0.3857 C   0  0  0  0  0  0  0  0  0  0  0  0
   -1.4610   -1.2326   -0.0047 C   0  0  0  0  0  0  0  0  0  0  0  0
    7.3743   -0.7881   -0.5791 C   0  0  0  0  0  0  0  0  0  0  0  0
    6.1992    1.0916    0.3814 C   0  0  0  0  0  0  0  0  0  0  0  0
   -7.3505   -0.0965    0.2092 C   0  0  0  0  0  0  0  0  0  0  0  0
   -3.6695   -0.1584    0.6765 C   0  0  0  0  0  0  0  0  0  0  0  0
    8.6071    1.1416    0.1913 C   0  0  0  0  0  0  0  0  0  0  0  0
    1.3126   -1.3259   -0.2899 C   0  0  0  0  0  0  0  0  0  0  0  0
   -5.6472   -1.4577    1.3321 C   0  0  0  0  0  0  0  0  0  0  0  0
   -5.9935    1.5757   -0.7721 C   0  0  0  0  0  0  0  0  0  0  0  0
   -0.6800   -0.1566    0.4171 C   0  0  0  0  0  0  0  0  0  0  0  0
   -0.8552   -2.3552   -0.5692 C   0  0  0  0  0  0  0  0  0  0  0  0
    0.7068   -0.2033    0.2747 C   0  0  0  0  0  0  0  0  0  0  0  0
    0.5315   -2.4018   -0.7118 C   0  0  0  0  0  0  0  0  0  0  0  0
    7.4339    3.1092    1.1917 C   0  0  0  0  0  0  0  0  0  0  0  0
    9.8650   -0.7803   -0.7957 C   0  0  0  0  0  0  0  0  0  0  0  0
    3.6586   -0.3943   -0.0722 C   0  0  0  0  0  0  0  0  0  0  0  0
   -8.2834    1.5271   -1.0035 C   0  0  0  0  0  0  0  0  0  0  0  0
    7.3604   -1.7790   -1.0274 H   0  0  0  0  0  0  0  0  0  0  0  0
    5.3125    1.6215    0.6990 H   0  0  0  0  0  0  0  0  0  0  0  0
    9.5542    1.6544    0.3415 H   0  0  0  0  0  0  0  0  0  0  0  0
   -3.3567   -2.0100   -0.2034 H   0  0  0  0  0  0  0  0  0  0  0  0
   -5.1407   -2.2185    1.9105 H   0  0  0  0  0  0  0  0  0  0  0  0
   -1.0767    0.7448    0.8621 H   0  0  0  0  0  0  0  0  0  0  0  0
   -1.4522   -3.2003   -0.9021 H   0  0  0  0  0  0  0  0  0  0  0  0
    5.0166   -1.7680   -0.8176 H   0  0  0  0  0  0  0  0  0  0  0  0
    1.2415    0.6680    0.6249 H   0  0  0  0  0  0  0  0  0  0  0  0
    0.9902   -3.2828   -1.1536 H   0  0  0  0  0  0  0  0  0  0  0  0
    3.0673   -2.2223   -0.8528 H   0  0  0  0  0  0  0  0  0  0  0  0
    7.1316    3.8612    0.4559 H   0  0  0  0  0  0  0  0  0  0  0  0
    6.7530    3.1563    2.0484 H   0  0  0  0  0  0  0  0  0  0  0  0
    8.4320    3.3702    1.5596 H   0  0  0  0  0  0  0  0  0  0  0  0
   10.2722   -1.3644    0.0355 H   0  0  0  0  0  0  0  0  0  0  0  0
    9.7120   -1.4469   -1.6512 H   0  0  0  0  0  0  0  0  0  0  0  0
   10.6090   -0.0360   -1.0995 H   0  0  0  0  0  0  0  0  0  0  0  0
   -9.1671    1.9945   -1.4237 H   0  0  0  0  0  0  0  0  0  0  0  0
   -4.7409    3.0202   -1.6101 H   0  0  0  0  0  0  0  0  0  0  0  0
   -3.8835    1.8064   -0.6968 H   0  0  0  0  0  0  0  0  0  0  0  0
  1 18  1  0  0  0  0
  1 22  1  0  0  0  0
  2 19  2  0  0  0  0
  3 30  2  0  0  0  0
  4 15  1  0  0  0  0
  4 19  1  0  0  0  0
  4 35  1  0  0  0  0
  5 12  1  0  0  0  0
  5 30  1  0  0  0  0
  5 39  1  0  0  0  0
  6 21  1  0  0  0  0
  6 30  1  0  0  0  0
  6 42  1  0  0  0  0
  7 18  2  0  0  0  0
  7 31  1  0  0  0  0
  8 23  1  0  0  0  0
  8 31  2  0  0  0  0
  9 23  1  0  0  0  0
  9 50  1  0  0  0  0
  9 51  1  0  0  0  0
 10 11  1  0  0  0  0
 10 19  1  0  0  0  0
 10 22  2  0  0  0  0
 11 18  1  0  0  0  0
 11 23  2  0  0  0  0
 12 16  2  0  0  0  0
 12 17  1  0  0  0  0
 13 17  2  0  0  0  0
 13 20  1  0  0  0  0
 13 28  1  0  0  0  0
 14 16  1  0  0  0  0
 14 20  2  0  0  0  0
 14 29  1  0  0  0  0
 15 24  2  0  0  0  0
 15 25  1  0  0  0  0
 16 32  1  0  0  0  0
 17 33  1  0  0  0  0
 20 34  1  0  0  0  0
 21 26  2  0  0  0  0
 21 27  1  0  0  0  0
 22 36  1  0  0  0  0
 24 26  1  0  0  0  0
 24 37  1  0  0  0  0
 25 27  2  0  0  0  0
 25 38  1  0  0  0  0
 26 40  1  0  0  0  0
 27 41  1  0  0  0  0
 28 43  1  0  0  0  0
 28 44  1  0  0  0  0
 28 45  1  0  0  0  0
 29 46  1  0  0  0  0
 29 47  1  0  0  0  0
 29 48  1  0  0  0  0
 31 49  1  0  0  0  0
M  END
> <PUBCHEM_COMPOUND_CID>
49830378

> <PUBCHEM_CONFORMER_RMSD>
1

> <PUBCHEM_CONFORMER_DIVERSEORDER>
1
16
23
15
11
3
21
5
7
20
8
18
9
24
10
19
4
2
17
13
22
25
6
14
12

> <PUBCHEM_MMFF94_PARTIAL_CHARGES>
44
1 -0.08
10 -0.09
12 0.12
13 -0.14
14 -0.14
15 0.12
16 -0.15
17 -0.15
18 0.3
19 0.72
2 -0.57
20 -0.15
21 0.12
22 -0.11
23 0.41
24 -0.15
25 -0.15
26 -0.15
27 -0.15
28 0.14
29 0.14
3 -0.57
30 0.69
31 0.47
32 0.15
33 0.15
34 0.15
35 0.37
36 0.15
37 0.15
38 0.15
39 0.37
4 -0.55
40 0.15
41 0.15
42 0.37
49 0.15
5 -0.55
50 0.4
51 0.4
6 -0.55
7 -0.57
8 -0.62
9 -0.9

> <PUBCHEM_EFFECTIVE_ROTOR_COUNT>
7

> <PUBCHEM_PHARMACOPHORE_FEATURES>
13
1 2 acceptor
1 3 acceptor
1 4 donor
1 5 donor
1 6 donor
1 7 acceptor
1 9 cation
1 9 donor
3 7 8 31 cation
5 1 10 11 18 22 rings
6 12 13 14 16 17 20 rings
6 15 21 24 25 26 27 rings
6 7 8 11 18 23 31 rings

> <PUBCHEM_HEAVY_ATOM_COUNT>
31

> <PUBCHEM_ATOM_DEF_STEREO_COUNT>
0

> <PUBCHEM_ATOM_UDEF_STEREO_COUNT>
0

> <PUBCHEM_BOND_DEF_STEREO_COUNT>
0

> <PUBCHEM_BOND_UDEF_STEREO_COUNT>
0

> <PUBCHEM_ISOTOPIC_ATOM_COUNT>
0

> <PUBCHEM_COMPONENT_COUNT>
1

> <PUBCHEM_CACTVS_TAUTO_COUNT>
24

> <PUBCHEM_CONFORMER_ID>
02F859EA00000001

> <PUBCHEM_MMFF94_ENERGY>
100.1535

> <PUBCHEM_FEATURE_SELFOVERLAP>
66.101

> <PUBCHEM_SHAPE_FINGERPRINT>
10 15 18334575745940659595
10299344 5 13901907795600143727
10625338 131 18339634552070203912
10669705 176 18343866614889830534
10835480 77 18336264540720254861
11135926 11 17561370565175877759
11315181 36 18272654537663369107
12013929 2 18261112933899986282
12089408 11 16370445570889172250
12838862 33 18130495388930822514
14251764 46 18131636677136066563
14344974 52 18412258459574177373
14856354 85 13686294691397563497
150020 25 18410572872945299792
15183329 4 16487252162205094534
15289351 153 18271243825358352090
15301273 46 18186239520231090894
15840311 113 18337113458360713292
15849732 13 18409169926293874110
16758388 162 18336818716308951874
1754911 235 18131631179482742013
17899979 19 18411702097278493489
1818759 1 8502375550948416816
18335252 114 17846778516796387496
21150785 3 15698000730055550174
21792934 111 18201994435958265976
21792961 116 18201723916562236970
23576562 1 18129088095382953917
249057 3 14979951493135094210
335352 9 18131637790423737038
437795 83 18059293154863334761
4403749 210 18337109064235123131
44280117 145 18341332297519731679
4625314 4 18342459261892609238
5219985 9 14634868669415106006
54039377 194 9511456732227221499
6081469 158 18342177748714698164
636775 72 18335419012137515725
9689198 14 18334294284159795058

> <PUBCHEM_SHAPE_MULTIPOLES>
600.19
34.63
2.39
1.06
26.9
0.79
0.07
14.09
-1.94
0.2
-0.15
-1.09
0.21
4.27

> <PUBCHEM_SHAPE_SELFOVERLAP>
1304.055

> <PUBCHEM_SHAPE_VOLUME>
328.1

> <PUBCHEM_COORDINATE_TYPE>
2
5
10

$$$$
49830369
  -OEChem-05102415013D

 48 51  0     0  0  0  0  0  0999 V2000
   -6.8045   -2.3500    0.5195 S   0  0  0  0  0  0  0  0  0  0  0  0
   -3.5737    1.0535    1.4628 O   0  0  0  0  0  0  0  0  0  0  0  0
    3.9689   -1.0163   -0.5351 O   0  0  0  0  0  0  0  0  0  0  0  0
   -2.5141   -0.6845    0.2953 N   0  0  0  0  0  0  0  0  0  0  0  0
    2.9000    0.7119    0.6310 N   0  0  0  0  0  0  0  0  0  0  0  0
    5.1999    0.7285    0.4183 N   0  0  0  0  0  0  0  0  0  0  0  0
   -8.2692   -0.5903   -0.8430 N   0  0  0  0  0  0  0  0  0  0  0  0
   -7.3211    1.5740   -1.3862 N   0  0  0  0  0  0  0  0  0  0  0  0
   -5.1238    2.2094   -0.7543 N   0  0  0  0  0  0  0  0  0  0  0  0
   -4.9211   -0.6040    0.5416 C   0  0  0  0  0  0  0  0  0  0  0  0
   -6.0034    0.0062   -0.1672 C   0  0  0  0  0  0  0  0  0  0  0  0
   -1.1449   -0.3320    0.3813 C   0  0  0  0  0  0  0  0  0  0  0  0
   -7.0914   -0.8537   -0.2443 C   0  0  0  0  0  0  0  0  0  0  0  0
   -3.6357   -0.0113    0.8151 C   0  0  0  0  0  0  0  0  0  0  0  0
    1.5516    0.3635    0.5476 C   0  0  0  0  0  0  0  0  0  0  0  0
   -5.2221   -1.8795    0.9677 C   0  0  0  0  0  0  0  0  0  0  0  0
   -6.1612    1.2574   -0.7719 C   0  0  0  0  0  0  0  0  0  0  0  0
   -0.7640    0.8276    1.0568 C   0  0  0  0  0  0  0  0  0  0  0  0
   -0.1774   -1.1438   -0.2108 C   0  0  0  0  0  0  0  0  0  0  0  0
    0.5841    1.1754    1.1399 C   0  0  0  0  0  0  0  0  0  0  0  0
    1.1708   -0.7960   -0.1278 C   0  0  0  0  0  0  0  0  0  0  0  0
    6.5314    0.3890    0.0806 C   0  0  0  0  0  0  0  0  0  0  0  0
    9.1561   -0.2815   -0.5854 C   0  0  0  0  0  0  0  0  0  0  0  0
    4.0234    0.0301    0.1030 C   0  0  0  0  0  0  0  0  0  0  0  0
    7.5845    1.2101    0.4834 C   0  0  0  0  0  0  0  0  0  0  0  0
    6.7905   -0.7673   -0.6553 C   0  0  0  0  0  0  0  0  0  0  0  0
    8.8968    0.8749    0.1503 C   0  0  0  0  0  0  0  0  0  0  0  0
    8.1028   -1.1025   -0.9884 C   0  0  0  0  0  0  0  0  0  0  0  0
   -8.2931    0.6409   -1.3839 C   0  0  0  0  0  0  0  0  0  0  0  0
   10.5597   -0.6399   -0.9407 C   0  0  0  0  0  0  0  0  0  0  0  0
   -2.6972   -1.5412   -0.2237 H   0  0  0  0  0  0  0  0  0  0  0  0
   -4.5944   -2.5631    1.5232 H   0  0  0  0  0  0  0  0  0  0  0  0
   -1.4536    1.5053    1.5394 H   0  0  0  0  0  0  0  0  0  0  0  0
   -0.4621   -2.0498   -0.7400 H   0  0  0  0  0  0  0  0  0  0  0  0
    0.8680    2.0818    1.6691 H   0  0  0  0  0  0  0  0  0  0  0  0
    1.8575   -1.4757   -0.6116 H   0  0  0  0  0  0  0  0  0  0  0  0
    3.0988    1.5701    1.1392 H   0  0  0  0  0  0  0  0  0  0  0  0
    5.0922    1.5852    0.9555 H   0  0  0  0  0  0  0  0  0  0  0  0
    7.3963    2.1137    1.0576 H   0  0  0  0  0  0  0  0  0  0  0  0
    6.0321   -1.4537   -1.0034 H   0  0  0  0  0  0  0  0  0  0  0  0
    9.7091    1.5215    0.4716 H   0  0  0  0  0  0  0  0  0  0  0  0
    8.2936   -2.0068   -1.5605 H   0  0  0  0  0  0  0  0  0  0  0  0
   -9.2144    0.9195   -1.8835 H   0  0  0  0  0  0  0  0  0  0  0  0
   -4.2330    2.0249   -0.3202 H   0  0  0  0  0  0  0  0  0  0  0  0
   -5.2826    3.1009   -1.2051 H   0  0  0  0  0  0  0  0  0  0  0  0
   10.9979   -1.2646   -0.1561 H   0  0  0  0  0  0  0  0  0  0  0  0
   10.5999   -1.1872   -1.8887 H   0  0  0  0  0  0  0  0  0  0  0  0
   11.1777    0.2563   -1.0621 H   0  0  0  0  0  0  0  0  0  0  0  0
  1 13  1  0  0  0  0
  1 16  1  0  0  0  0
  2 14  2  0  0  0  0
  3 24  2  0  0  0  0
  4 12  1  0  0  0  0
  4 14  1  0  0  0  0
  4 31  1  0  0  0  0
  5 15  1  0  0  0  0
  5 24  1  0  0  0  0
  5 37  1  0  0  0  0
  6 22  1  0  0  0  0
  6 24  1  0  0  0  0
  6 38  1  0  0  0  0
  7 13  2  0  0  0  0
  7 29  1  0  0  0  0
  8 17  1  0  0  0  0
  8 29  2  0  0  0  0
  9 17  1  0  0  0  0
  9 44  1  0  0  0  0
  9 45  1  0  0  0  0
 10 11  1  0  0  0  0
 10 14  1  0  0  0  0
 10 16  2  0  0  0  0
 11 13  1  0  0  0  0
 11 17  2  0  0  0  0
 12 18  2  0  0  0  0
 12 19  1  0  0  0  0
 15 20  2  0  0  0  0
 15 21  1  0  0  0  0
 16 32  1  0  0  0  0
 18 20  1  0  0  0  0
 18 33  1  0  0  0  0
 19 21  2  0  0  0  0
 19 34  1  0  0  0  0
 20 35  1  0  0  0  0
 21 36  1  0  0  0  0
 22 25  2  0  0  0  0
 22 26  1  0  0  0  0
 23 27  2  0  0  0  0
 23 28  1  0  0  0  0
 23 30  1  0  0  0  0
 25 27  1  0  0  0  0
 25 39  1  0  0  0  0
 26 28  2  0  0  0  0
 26 40  1  0  0  0  0
 27 41  1  0  0  0  0
 28 42  1  0  0  0  0
 29 43  1  0  0  0  0
 30 46  1  0  0  0  0
 30 47  1  0  0  0  0
 30 48  1  0  0  0  0
M  END
> <PUBCHEM_COMPOUND_CID>
49830369

> <PUBCHEM_CONFORMER_RMSD>
0.8

> <PUBCHEM_CONFORMER_DIVERSEORDER>
1
16
26
20
36
34
8
31
13
22
3
11
25
23
35
12
24
30
2
29
18
7
19
6
38
4
17
33
37
14
5
32
15
9
21
27
10
39
28

> <PUBCHEM_MMFF94_PARTIAL_CHARGES>
44
1 -0.08
10 -0.09
12 0.12
13 0.3
14 0.72
15 0.12
16 -0.11
17 0.41
18 -0.15
19 -0.15
2 -0.57
20 -0.15
21 -0.15
22 0.12
23 -0.14
24 0.69
25 -0.15
26 -0.15
27 -0.15
28 -0.15
29 0.47
3 -0.57
30 0.14
31 0.37
32 0.15
33 0.15
34 0.15
35 0.15
36 0.15
37 0.37
38 0.37
39 0.15
4 -0.55
40 0.15
41 0.15
42 0.15
43 0.15
44 0.4
45 0.4
5 -0.55
6 -0.55
7 -0.57
8 -0.62
9 -0.9

> <PUBCHEM_EFFECTIVE_ROTOR_COUNT>
7

> <PUBCHEM_PHARMACOPHORE_FEATURES>
13
1 2 acceptor
1 3 acceptor
1 4 donor
1 5 donor
1 6 donor
1 7 acceptor
1 9 cation
1 9 donor
3 7 8 29 cation
5 1 10 11 13 16 rings
6 12 15 18 19 20 21 rings
6 22 23 25 26 27 28 rings
6 7 8 11 13 17 29 rings

> <PUBCHEM_HEAVY_ATOM_COUNT>
30

> <PUBCHEM_ATOM_DEF_STEREO_COUNT>
0

> <PUBCHEM_ATOM_UDEF_STEREO_COUNT>
0

> <PUBCHEM_BOND_DEF_STEREO_COUNT>
0

> <PUBCHEM_BOND_UDEF_STEREO_COUNT>
0

> <PUBCHEM_ISOTOPIC_ATOM_COUNT>
0

> <PUBCHEM_COMPONENT_COUNT>
1

> <PUBCHEM_CACTVS_TAUTO_COUNT>
24

> <PUBCHEM_CONFORMER_ID>
02F859E100000001

> <PUBCHEM_MMFF94_ENERGY>
97.3892

> <PUBCHEM_FEATURE_SELFOVERLAP>
66.102

> <PUBCHEM_SHAPE_FINGERPRINT>
10050765 1 17913501142703040634
10299344 5 13902191490990595764
106641 1 11312054349216509986
10666366 153 18410294714342400004
10669705 176 18410293605396682230
11135926 11 18131078121456675339
11181472 205 17023461942011553428
11315181 36 18413673522222337411
11638347 137 12463579461588112780
11672396 167 18199470953615008342
12082328 90 18060139808469588037
12089408 11 15267348427236792634
12758862 11 18409447028804331137
12838862 33 18130495393400070818
13885169 127 18333450945344614306
13974486 27 18114746052626058469
14150022 121 10519718781876560995
14251764 18 16660360381342289280
14251764 46 17346883351123822430
14428016 248 15574437622301094718
14617042 71 13407375010107466678
150020 25 18411133641113357000
15131766 46 17609505174580573004
15183329 4 18186516588460475969
15198563 99 18340773637506169348
15247644 1 15626224619847947956
15328684 2 16661187166890327024
15461852 350 18187087277507166399
15510794 2 18413109471940214582
1577012 14 17240194426471274217
15849732 13 18412263956467704164
16728433 110 16988839502295870416
1754908 1 11959729361386133254
1754911 235 17675926508609681206
19315958 150 12540688207089999096
195137 175 16153708721518410540
21150785 3 17489867137360536868
21267235 1 18059863874517199576
21360443 89 10087626110773142669
21792961 116 18272653432712185131
232437 2 17775568653932590670
23528940 14 12751227122073166309
23576562 1 17969504994611736045
249057 3 17821732770827254622
3092352 35 16081087090868772066
335352 9 17988928886373051268
3711267 37 13262402137719829774
395649 100 18343586205466222001
44802255 64 18113890547586721247
4625314 4 18335985363129073834
5219985 9 15841834456197756288
54039377 194 17060331955783447605
5758199 1 15502372326833053464
6081469 158 18412263922693696956
6201320 215 16878770609410551940
6691757 9 16153717518244735113
67123 10 18343022207756421198
68570916 9 10879406436117784816
9962374 69 16558739144405639344

> <PUBCHEM_SHAPE_MULTIPOLES>
579.61
35.6
1.68
1.14
45.47
0.13
0.05
2.26
12.76
-2.77
0.01
-1.03
-0.2
2.74

> <PUBCHEM_SHAPE_SELFOVERLAP>
1262.012

> <PUBCHEM_SHAPE_VOLUME>
314.7

> <PUBCHEM_COORDINATE_TYPE>
2
5
10

$$$$
49830382
  -OEChem-05102415013D

 46 49  0     0  0  0  0  0  0999 V2000
    5.6790   -2.2122    0.7957 S   0  0  0  0  0  0  0  0  0  0  0  0
   -2.8972    0.0712    1.2311 O   0  0  0  0  0  0  0  0  0  0  0  0
   -2.0311   -0.5477   -0.8561 N   0  0  0  0  0  0  0  0  0  0  0  0
    6.9034    0.1174    0.3807 N   0  0  0  0  0  0  0  0  0  0  0  0
    5.5976    2.0341   -0.3262 N   0  0  0  0  0  0  0  0  0  0  0  0
   -4.3002   -0.1834   -0.6225 N   0  0  0  0  0  0  0  0  0  0  0  0
    3.2530    1.9363   -0.6706 N   0  0  0  0  0  0  0  0  0  0  0  0
    7.9082    2.1920   -0.0027 N   0  0  0  0  0  0  0  0  0  0  0  0
    3.4821   -1.0516    0.1461 C   0  0  0  0  0  0  0  0  0  0  0  0
    4.4939   -0.0459    0.0430 C   0  0  0  0  0  0  0  0  0  0  0  0
    2.0695   -0.9232   -0.1104 C   0  0  0  0  0  0  0  0  0  0  0  0
    5.7400   -0.5620    0.3744 C   0  0  0  0  0  0  0  0  0  0  0  0
    3.9880   -2.2700    0.5442 C   0  0  0  0  0  0  0  0  0  0  0  0
    1.2037   -0.5591    0.9209 C   0  0  0  0  0  0  0  0  0  0  0  0
    1.5685   -1.1623   -1.3900 C   0  0  0  0  0  0  0  0  0  0  0  0
   -0.6642   -0.6736   -0.6071 C   0  0  0  0  0  0  0  0  0  0  0  0
    4.4608    1.3058   -0.3154 C   0  0  0  0  0  0  0  0  0  0  0  0
   -0.1632   -0.4344    0.6726 C   0  0  0  0  0  0  0  0  0  0  0  0
    0.2016   -1.0376   -1.6384 C   0  0  0  0  0  0  0  0  0  0  0  0
    6.7365    1.4019    0.0187 C   0  0  0  0  0  0  0  0  0  0  0  0
   -5.5757    0.1178   -0.0894 C   0  0  0  0  0  0  0  0  0  0  0  0
   -3.0646   -0.1911    0.0443 C   0  0  0  0  0  0  0  0  0  0  0  0
   -7.9609    0.3660   -0.3815 C   0  0  0  0  0  0  0  0  0  0  0  0
   -6.7036    0.0711   -0.9086 C   0  0  0  0  0  0  0  0  0  0  0  0
   -5.7050    0.4593    1.2569 C   0  0  0  0  0  0  0  0  0  0  0  0
   -8.0905    0.7076    0.9647 C   0  0  0  0  0  0  0  0  0  0  0  0
   -6.9624    0.7543    1.7838 C   0  0  0  0  0  0  0  0  0  0  0  0
   -9.1668    0.3195   -1.2582 C   0  0  0  0  0  0  0  0  0  0  0  0
    3.4548   -3.1981    0.7025 H   0  0  0  0  0  0  0  0  0  0  0  0
    1.5796   -0.3681    1.9235 H   0  0  0  0  0  0  0  0  0  0  0  0
    2.2300   -1.4455   -2.2053 H   0  0  0  0  0  0  0  0  0  0  0  0
   -0.7665   -0.1489    1.5224 H   0  0  0  0  0  0  0  0  0  0  0  0
   -0.1750   -1.2264   -2.6405 H   0  0  0  0  0  0  0  0  0  0  0  0
   -2.3203   -0.7379   -1.8124 H   0  0  0  0  0  0  0  0  0  0  0  0
   -4.2870   -0.4233   -1.6106 H   0  0  0  0  0  0  0  0  0  0  0  0
   -6.6038   -0.1932   -1.9590 H   0  0  0  0  0  0  0  0  0  0  0  0
    2.3710    1.4504   -0.6828 H   0  0  0  0  0  0  0  0  0  0  0  0
    3.2815    2.9158   -0.9220 H   0  0  0  0  0  0  0  0  0  0  0  0
   -4.8827    0.5179    1.9552 H   0  0  0  0  0  0  0  0  0  0  0  0
   -9.0642    0.9419    1.3867 H   0  0  0  0  0  0  0  0  0  0  0  0
   -7.0645    1.0211    2.8318 H   0  0  0  0  0  0  0  0  0  0  0  0
   -9.3156    1.2889   -1.7440 H   0  0  0  0  0  0  0  0  0  0  0  0
   -9.0623   -0.4494   -2.0313 H   0  0  0  0  0  0  0  0  0  0  0  0
  -10.0661    0.0744   -0.6828 H   0  0  0  0  0  0  0  0  0  0  0  0
    7.8459    3.1655   -0.2668 H   0  0  0  0  0  0  0  0  0  0  0  0
    8.7938    1.7738    0.2464 H   0  0  0  0  0  0  0  0  0  0  0  0
  1 12  1  0  0  0  0
  1 13  1  0  0  0  0
  2 22  2  0  0  0  0
  3 16  1  0  0  0  0
  3 22  1  0  0  0  0
  3 34  1  0  0  0  0
  4 12  2  0  0  0  0
  4 20  1  0  0  0  0
  5 17  1  0  0  0  0
  5 20  2  0  0  0  0
  6 21  1  0  0  0  0
  6 22  1  0  0  0  0
  6 35  1  0  0  0  0
  7 17  1  0  0  0  0
  7 37  1  0  0  0  0
  7 38  1  0  0  0  0
  8 20  1  0  0  0  0
  8 45  1  0  0  0  0
  8 46  1  0  0  0  0
  9 10  1  0  0  0  0
  9 11  1  0  0  0  0
  9 13  2  0  0  0  0
 10 12  1  0  0  0  0
 10 17  2  0  0  0  0
 11 14  2  0  0  0  0
 11 15  1  0  0  0  0
 13 29  1  0  0  0  0
 14 18  1  0  0  0  0
 14 30  1  0  0  0  0
 15 19  2  0  0  0  0
 15 31  1  0  0  0  0
 16 18  2  0  0  0  0
 16 19  1  0  0  0  0
 18 32  1  0  0  0  0
 19 33  1  0  0  0  0
 21 24  1  0  0  0  0
 21 25  2  0  0  0  0
 23 24  2  0  0  0  0
 23 26  1  0  0  0  0
 23 28  1  0  0  0  0
 24 36  1  0  0  0  0
 25 27  1  0  0  0  0
 25 39  1  0  0  0  0
 26 27  2  0  0  0  0
 26 40  1  0  0  0  0
 27 41  1  0  0  0  0
 28 42  1  0  0  0  0
 28 43  1  0  0  0  0
 28 44  1  0  0  0  0
M  END
> <PUBCHEM_COMPOUND_CID>
49830382

> <PUBCHEM_CONFORMER_RMSD>
0.8

> <PUBCHEM_CONFORMER_DIVERSEORDER>
1
16
29
17
2
15
22
7
18
12
31
5
19
13
11
32
20
23
14
8
3
30
4
6
28
26
27
9
25
10
24
21

> <PUBCHEM_MMFF94_PARTIAL_CHARGES>
42
1 -0.08
11 0.05
12 0.3
13 -0.11
14 -0.15
15 -0.15
16 0.12
17 0.41
18 -0.15
19 -0.15
2 -0.57
20 0.72
21 0.12
22 0.69
23 -0.14
24 -0.15
25 -0.15
26 -0.15
27 -0.15
28 0.14
29 0.15
3 -0.55
30 0.15
31 0.15
32 0.15
33 0.15
34 0.37
35 0.37
36 0.15
37 0.4
38 0.4
39 0.15
4 -0.57
40 0.15
41 0.15
45 0.4
46 0.4
5 -0.62
6 -0.55
7 -0.9
8 -0.9
9 -0.05

> <PUBCHEM_EFFECTIVE_ROTOR_COUNT>
5

> <PUBCHEM_PHARMACOPHORE_FEATURES>
12
1 2 acceptor
1 3 donor
1 4 acceptor
1 6 donor
1 7 cation
1 7 donor
1 8 donor
4 4 5 8 20 cation
5 1 9 10 12 13 rings
6 11 14 15 16 18 19 rings
6 21 23 24 25 26 27 rings
6 4 5 10 12 17 20 rings

> <PUBCHEM_HEAVY_ATOM_COUNT>
28

> <PUBCHEM_ATOM_DEF_STEREO_COUNT>
0

> <PUBCHEM_ATOM_UDEF_STEREO_COUNT>
0

> <PUBCHEM_BOND_DEF_STEREO_COUNT>
0

> <PUBCHEM_BOND_UDEF_STEREO_COUNT>
0

> <PUBCHEM_ISOTOPIC_ATOM_COUNT>
0

> <PUBCHEM_COMPONENT_COUNT>
1

> <PUBCHEM_CACTVS_TAUTO_COUNT>
27

> <PUBCHEM_CONFORMER_ID>
02F859EE00000001

> <PUBCHEM_MMFF94_ENERGY>
91.7294

> <PUBCHEM_FEATURE_SELFOVERLAP>
61.026

> <PUBCHEM_SHAPE_FINGERPRINT>
10 15 17603303764930457411
10162869 55 18336256938259097111
10299344 5 18060418002423334099
10411042 1 17975126545396763562
10554248 39 17630881608578621983
106641 1 14634870881845086684
10906281 52 17703241654314221347
11315181 36 18343582946345153539
11646440 116 16732708237844379877
11719270 70 17203326672063753071
12089408 11 17989485204765189595
12166972 35 8430309139396202831
12236239 1 18202561796226064222
125118 31 18339081493426373745
13383665 225 16773258205350018569
13533116 47 18041561334593560218
13617811 41 16343986914203567208
14170010 4 17894633647560847862
14251757 52 17775563165449508104
14251764 18 17989203738104029083
14294032 229 17346315960622947749
14849402 71 18340770433275476177
14856354 85 17346595301559575413
15131766 46 18193832871876126196
15183329 4 17418096520637768313
15301273 46 16660360364130791023
15419008 47 17095518483540077141
15419008 91 16660634172902044357
15461852 350 16917344858200612615
15510794 2 17603305947649712995
1577012 14 18202280316347640583
15840311 113 18412265052085609628
15849732 13 13470683750682101177
16120349 18 18408879650892373949
16989713 51 16486396829260922175
17093844 174 17385443216496080155
1818759 1 11025794275926322472
18335252 114 18202283611046752148
20157964 124 18408886222530167714
2026 5 9655038644764929556
20505436 4 18272647992012676886
20771845 171 17846786187434165318
21150785 3 17560801044180449445
21267235 1 8574441932848076512
21792934 111 17168142326361357701
22224240 67 17822009813572263755
23081809 10 17988917864801596399
23576562 1 17058920251003549857
255183 451 17771356275486541854
3092352 35 18131630088519455158
3383291 50 15791742914556069105
397830 11 17749683998910687515
4073 2 18041283261051723538
4325135 7 18272087193299248061
4340502 62 17894914027326686130
445580 37 15985111790986347051
45377200 153 11887370531855356973
5104073 3 16806153350820828121
5758199 1 17775567525020946927
59520757 100 15912751903563716181
67123 10 18408882946044945519

> <PUBCHEM_SHAPE_MULTIPOLES>
544.32
27.49
1.79
1.29
35.93
0.26
-0.03
10.36
-2.05
-5.22
-0.01
1.94
-0.13
-1.42

> <PUBCHEM_SHAPE_SELFOVERLAP>
1191.59

> <PUBCHEM_SHAPE_VOLUME>
296.2

> <PUBCHEM_COORDINATE_TYPE>
2
5
10

$$$$
49830566
  -OEChem-05102415023D

 48 51  0     0  0  0  0  0  0999 V2000
   -6.9765   -1.6877    1.0327 S   0  0  0  0  0  0  0  0  0  0  0  0
   -2.9392    0.8775    1.2081 O   0  0  0  0  0  0  0  0  0  0  0  0
    3.6885    0.9295    0.5988 O   0  0  0  0  0  0  0  0  0  0  0  0
   -2.5004   -1.1372    0.0880 N   0  0  0  0  0  0  0  0  0  0  0  0
    3.0774   -1.0884   -0.4232 N   0  0  0  0  0  0  0  0  0  0  0  0
    5.3058   -0.4897   -0.3173 N   0  0  0  0  0  0  0  0  0  0  0  0
   -8.1799    0.2858   -0.2922 N   0  0  0  0  0  0  0  0  0  0  0  0
   -6.8475    2.1142   -1.1639 N   0  0  0  0  0  0  0  0  0  0  0  0
   -4.4933    2.2331   -0.8898 N   0  0  0  0  0  0  0  0  0  0  0  0
   -4.7576   -0.4563    0.6376 C   0  0  0  0  0  0  0  0  0  0  0  0
   -5.7624    0.3531    0.0200 C   0  0  0  0  0  0  0  0  0  0  0  0
   -1.0898   -1.1247   -0.0406 C   0  0  0  0  0  0  0  0  0  0  0  0
   -7.0192   -0.2185    0.1703 C   0  0  0  0  0  0  0  0  0  0  0  0
   -3.3437   -0.1791    0.6815 C   0  0  0  0  0  0  0  0  0  0  0  0
    1.6881   -1.1001   -0.2954 C   0  0  0  0  0  0  0  0  0  0  0  0
   -5.2792   -1.5900    1.2222 C   0  0  0  0  0  0  0  0  0  0  0  0
   -5.7141    1.5639   -0.6784 C   0  0  0  0  0  0  0  0  0  0  0  0
    6.5104    0.2066   -0.0604 C   0  0  0  0  0  0  0  0  0  0  0  0
   -0.3527   -0.0526    0.4626 C   0  0  0  0  0  0  0  0  0  0  0  0
   -0.4379   -2.1845   -0.6710 C   0  0  0  0  0  0  0  0  0  0  0  0
    7.7393   -0.3181   -0.4604 C   0  0  0  0  0  0  0  0  0  0  0  0
    1.0362   -0.0402    0.3351 C   0  0  0  0  0  0  0  0  0  0  0  0
    0.9511   -2.1721   -0.7984 C   0  0  0  0  0  0  0  0  0  0  0  0
    3.9972   -0.1047    0.0152 C   0  0  0  0  0  0  0  0  0  0  0  0
    6.4581    1.4330    0.6021 C   0  0  0  0  0  0  0  0  0  0  0  0
    8.9159    0.3835   -0.1978 C   0  0  0  0  0  0  0  0  0  0  0  0
    7.8255   -1.6295   -1.1715 C   0  0  0  0  0  0  0  0  0  0  0  0
    7.6347    2.1347    0.8648 C   0  0  0  0  0  0  0  0  0  0  0  0
    8.8636    1.6099    0.4648 C   0  0  0  0  0  0  0  0  0  0  0  0
   -7.9980    1.4485   -0.9433 C   0  0  0  0  0  0  0  0  0  0  0  0
   -2.9534   -1.9547   -0.3161 H   0  0  0  0  0  0  0  0  0  0  0  0
   -4.7514   -2.3692    1.7551 H   0  0  0  0  0  0  0  0  0  0  0  0
   -0.7868    0.8021    0.9617 H   0  0  0  0  0  0  0  0  0  0  0  0
   -1.0002   -3.0260   -1.0675 H   0  0  0  0  0  0  0  0  0  0  0  0
    1.5356    0.8240    0.7496 H   0  0  0  0  0  0  0  0  0  0  0  0
    1.4460   -3.0046   -1.2921 H   0  0  0  0  0  0  0  0  0  0  0  0
    3.4790   -1.8954   -0.8942 H   0  0  0  0  0  0  0  0  0  0  0  0
    5.3961   -1.3776   -0.8018 H   0  0  0  0  0  0  0  0  0  0  0  0
    5.5532    1.9113    0.9460 H   0  0  0  0  0  0  0  0  0  0  0  0
    9.8820   -0.0104   -0.5021 H   0  0  0  0  0  0  0  0  0  0  0  0
    8.8612   -1.8931   -1.4130 H   0  0  0  0  0  0  0  0  0  0  0  0
    7.2737   -1.5920   -2.1167 H   0  0  0  0  0  0  0  0  0  0  0  0
    7.4258   -2.4341   -0.5453 H   0  0  0  0  0  0  0  0  0  0  0  0
    7.5957    3.0898    1.3807 H   0  0  0  0  0  0  0  0  0  0  0  0
    9.7797    2.1563    0.6693 H   0  0  0  0  0  0  0  0  0  0  0  0
   -8.8937    1.9111   -1.3431 H   0  0  0  0  0  0  0  0  0  0  0  0
   -4.5065    3.1058   -1.4011 H   0  0  0  0  0  0  0  0  0  0  0  0
   -3.6149    1.8648   -0.5599 H   0  0  0  0  0  0  0  0  0  0  0  0
  1 13  1  0  0  0  0
  1 16  1  0  0  0  0
  2 14  2  0  0  0  0
  3 24  2  0  0  0  0
  4 12  1  0  0  0  0
  4 14  1  0  0  0  0
  4 31  1  0  0  0  0
  5 15  1  0  0  0  0
  5 24  1  0  0  0  0
  5 37  1  0  0  0  0
  6 18  1  0  0  0  0
  6 24  1  0  0  0  0
  6 38  1  0  0  0  0
  7 13  2  0  0  0  0
  7 30  1  0  0  0  0
  8 17  1  0  0  0  0
  8 30  2  0  0  0  0
  9 17  1  0  0  0  0
  9 47  1  0  0  0  0
  9 48  1  0  0  0  0
 10 11  1  0  0  0  0
 10 14  1  0  0  0  0
 10 16  2  0  0  0  0
 11 13  1  0  0  0  0
 11 17  2  0  0  0  0
 12 19  2  0  0  0  0
 12 20  1  0  0  0  0
 15 22  2  0  0  0  0
 15 23  1  0  0  0  0
 16 32  1  0  0  0  0
 18 21  1  0  0  0  0
 18 25  2  0  0  0  0
 19 22  1  0  0  0  0
 19 33  1  0  0  0  0
 20 23  2  0  0  0  0
 20 34  1  0  0  0  0
 21 26  2  0  0  0  0
 21 27  1  0  0  0  0
 22 35  1  0  0  0  0
 23 36  1  0  0  0  0
 25 28  1  0  0  0  0
 25 39  1  0  0  0  0
 26 29  1  0  0  0  0
 26 40  1  0  0  0  0
 27 41  1  0  0  0  0
 27 42  1  0  0  0  0
 27 43  1  0  0  0  0
 28 29  2  0  0  0  0
 28 44  1  0  0  0  0
 29 45  1  0  0  0  0
 30 46  1  0  0  0  0
M  END
> <PUBCHEM_COMPOUND_CID>
49830566

> <PUBCHEM_CONFORMER_RMSD>
0.8

> <PUBCHEM_CONFORMER_DIVERSEORDER>
1
30
25
26
47
46
45
19
33
15
28
36
62
55
6
66
39
40
50
56
35
29
51
49
7
38
54
2
43
31
21
16
37
22
13
65
32
53
48
61
63
58
27
41
4
67
18
57
5
59
3
23
44
8
24
17
52
9
34
64
12
60
11
14
20
10
42

> <PUBCHEM_MMFF94_PARTIAL_CHARGES>
44
1 -0.08
10 -0.09
12 0.12
13 0.3
14 0.72
15 0.12
16 -0.11
17 0.41
18 0.12
19 -0.15
2 -0.57
20 -0.15
21 -0.14
22 -0.15
23 -0.15
24 0.69
25 -0.15
26 -0.15
27 0.14
28 -0.15
29 -0.15
3 -0.57
30 0.47
31 0.37
32 0.15
33 0.15
34 0.15
35 0.15
36 0.15
37 0.37
38 0.37
39 0.15
4 -0.55
40 0.15
44 0.15
45 0.15
46 0.15
47 0.4
48 0.4
5 -0.55
6 -0.55
7 -0.57
8 -0.62
9 -0.9

> <PUBCHEM_EFFECTIVE_ROTOR_COUNT>
7

> <PUBCHEM_PHARMACOPHORE_FEATURES>
13
1 2 acceptor
1 3 acceptor
1 4 donor
1 5 donor
1 6 donor
1 7 acceptor
1 9 cation
1 9 donor
3 7 8 30 cation
5 1 10 11 13 16 rings
6 12 15 19 20 22 23 rings
6 18 21 25 26 28 29 rings
6 7 8 11 13 17 30 rings

> <PUBCHEM_HEAVY_ATOM_COUNT>
30

> <PUBCHEM_ATOM_DEF_STEREO_COUNT>
0

> <PUBCHEM_ATOM_UDEF_STEREO_COUNT>
0

> <PUBCHEM_BOND_DEF_STEREO_COUNT>
0

> <PUBCHEM_BOND_UDEF_STEREO_COUNT>
0

> <PUBCHEM_ISOTOPIC_ATOM_COUNT>
0

> <PUBCHEM_COMPONENT_COUNT>
1

> <PUBCHEM_CACTVS_TAUTO_COUNT>
24

> <PUBCHEM_CONFORMER_ID>
02F85AA600000001

> <PUBCHEM_MMFF94_ENERGY>
99.4776

> <PUBCHEM_FEATURE_SELFOVERLAP>
66.101

> <PUBCHEM_SHAPE_FINGERPRINT>
10 15 18408039623761021666
10299344 5 13686299071314574677
10666366 153 18411427181417944414
10669705 176 18413392016463768438
10835480 77 18337390449122157957
11135926 11 17561090189768843119
11315181 36 18273498971077960131
125118 31 18187086178723831476
12643181 29 10015864276150380073
12838862 33 18059563703479329672
13811026 1 18408887342930803108
13911987 19 17775280535580378999
14251764 18 16153426155746587762
150020 25 18411417293522442228
15131766 46 17463143679932994084
15183329 4 16200431368834806910
15289351 153 18271806775332885370
15301273 46 18260267443453649838
15328684 2 16588568826143328080
15419008 47 18411695487028718113
15461852 350 18187652427038017007
15840311 113 18334861654336443924
15849732 13 18410294731121245284
1754911 235 17989204841230337212
1818759 1 7853577933207164048
18335252 114 17917709107015395648
19611394 137 18117290344296406347
20281389 69 18411702097752447858
21150785 3 15698000734313490260
21792934 111 18272925013429268904
21792961 116 18201441337768394682
22224240 67 16515684472686194218
23576562 1 18057874926185558589
246663 6 10087641507006435012
249057 3 14836118883963746466
335352 9 18060706104887828564
395649 100 18338510959020105327
437795 83 17988644043752506817
44280117 145 18342175631380444951
5219985 9 14851603302086669478
5758199 1 16805040718173348026
636775 72 18335419016332288717
9689198 14 18335420179808710402

> <PUBCHEM_SHAPE_MULTIPOLES>
579.61
32.31
2.2
1.05
26.1
0.21
0.02
12.69
-1.4
-0.68
-0.38
-0.73
0.03
3.89

> <PUBCHEM_SHAPE_SELFOVERLAP>
1262.853

> <PUBCHEM_SHAPE_VOLUME>
315

> <PUBCHEM_COORDINATE_TYPE>
2
5
10

$$$$
49830379
  -OEChem-05102415023D

 48 52  0     0  0  0  0  0  0999 V2000
    5.9347    1.4542    0.4209 S   0  0  0  0  0  0  0  0  0  0  0  0
   -2.8424   -1.2060    0.3349 O   0  0  0  0  0  0  0  0  0  0  0  0
   -2.0958    0.9632   -0.1406 N   0  0  0  0  0  0  0  0  0  0  0  0
    6.8691   -1.0044    0.1015 N   0  0  0  0  0  0  0  0  0  0  0  0
    5.3424   -2.8226   -0.3419 N   0  0  0  0  0  0  0  0  0  0  0  0
    3.0601   -2.5577   -0.6793 N   0  0  0  0  0  0  0  0  0  0  0  0
   -4.3616    0.5140   -0.1152 N   0  0  0  0  0  0  0  0  0  0  0  0
    2.3559    3.0726   -0.4240 C   0  0  0  0  0  0  0  0  0  0  0  0
    3.5553    0.4954    0.1408 C   0  0  0  0  0  0  0  0  0  0  0  0
    3.6344    3.0351    0.4220 C   0  0  0  0  0  0  0  0  0  0  0  0
    1.4944    1.8480   -0.1890 C   0  0  0  0  0  0  0  0  0  0  0  0
    2.0892    0.5893    0.0773 C   0  0  0  0  0  0  0  0  0  0  0  0
    4.2560    1.6783    0.3156 C   0  0  0  0  0  0  0  0  0  0  0  0
    4.4535   -0.6264   -0.0018 C   0  0  0  0  0  0  0  0  0  0  0  0
    0.0999    1.9585   -0.2782 C   0  0  0  0  0  0  0  0  0  0  0  0
    1.2600   -0.5127    0.3145 C   0  0  0  0  0  0  0  0  0  0  0  0
    5.7763   -0.2185    0.1559 C   0  0  0  0  0  0  0  0  0  0  0  0
   -0.7078    0.8442   -0.0651 C   0  0  0  0  0  0  0  0  0  0  0  0
   -0.1294   -0.3850    0.2390 C   0  0  0  0  0  0  0  0  0  0  0  0
    4.2799   -1.9913   -0.2740 C   0  0  0  0  0  0  0  0  0  0  0  0
    6.5590   -2.2856   -0.1471 C   0  0  0  0  0  0  0  0  0  0  0  0
   -3.0807   -0.0354    0.0562 C   0  0  0  0  0  0  0  0  0  0  0  0
   -5.6113   -0.1403   -0.0071 C   0  0  0  0  0  0  0  0  0  0  0  0
   -6.8031    0.5557   -0.2095 C   0  0  0  0  0  0  0  0  0  0  0  0
   -5.6419   -1.4990    0.3065 C   0  0  0  0  0  0  0  0  0  0  0  0
   -8.0253   -0.1071   -0.0985 C   0  0  0  0  0  0  0  0  0  0  0  0
   -6.8007    2.0115   -0.5463 C   0  0  0  0  0  0  0  0  0  0  0  0
   -6.8642   -2.1621    0.4176 C   0  0  0  0  0  0  0  0  0  0  0  0
   -8.0559   -1.4661    0.2151 C   0  0  0  0  0  0  0  0  0  0  0  0
    1.8012    3.9879   -0.1863 H   0  0  0  0  0  0  0  0  0  0  0  0
    2.6103    3.1072   -1.4912 H   0  0  0  0  0  0  0  0  0  0  0  0
    4.3166    3.8251    0.0884 H   0  0  0  0  0  0  0  0  0  0  0  0
    3.3912    3.2292    1.4745 H   0  0  0  0  0  0  0  0  0  0  0  0
   -0.3502    2.9221   -0.5074 H   0  0  0  0  0  0  0  0  0  0  0  0
    1.6373   -1.4462    0.7109 H   0  0  0  0  0  0  0  0  0  0  0  0
   -0.6886   -1.2817    0.4661 H   0  0  0  0  0  0  0  0  0  0  0  0
   -2.4426    1.8928   -0.3643 H   0  0  0  0  0  0  0  0  0  0  0  0
    7.3945   -2.9743   -0.2018 H   0  0  0  0  0  0  0  0  0  0  0  0
    3.0648   -3.5454   -0.9026 H   0  0  0  0  0  0  0  0  0  0  0  0
    2.3804   -1.9775   -1.1495 H   0  0  0  0  0  0  0  0  0  0  0  0
   -4.3917    1.5026   -0.3450 H   0  0  0  0  0  0  0  0  0  0  0  0
   -4.7706   -2.1131    0.4790 H   0  0  0  0  0  0  0  0  0  0  0  0
   -8.9634    0.4194   -0.2529 H   0  0  0  0  0  0  0  0  0  0  0  0
   -7.8171    2.4010   -0.6717 H   0  0  0  0  0  0  0  0  0  0  0  0
   -6.2695    2.1882   -1.4875 H   0  0  0  0  0  0  0  0  0  0  0  0
   -6.3300    2.5913    0.2546 H   0  0  0  0  0  0  0  0  0  0  0  0
   -6.8896   -3.2202    0.6618 H   0  0  0  0  0  0  0  0  0  0  0  0
   -9.0076   -1.9823    0.3017 H   0  0  0  0  0  0  0  0  0  0  0  0
  1 13  1  0  0  0  0
  1 17  1  0  0  0  0
  2 22  2  0  0  0  0
  3 18  1  0  0  0  0
  3 22  1  0  0  0  0
  3 37  1  0  0  0  0
  4 17  2  0  0  0  0
  4 21  1  0  0  0  0
  5 20  1  0  0  0  0
  5 21  2  0  0  0  0
  6 20  1  0  0  0  0
  6 39  1  0  0  0  0
  6 40  1  0  0  0  0
  7 22  1  0  0  0  0
  7 23  1  0  0  0  0
  7 41  1  0  0  0  0
  8 10  1  0  0  0  0
  8 11  1  0  0  0  0
  8 30  1  0  0  0  0
  8 31  1  0  0  0  0
  9 12  1  0  0  0  0
  9 13  2  0  0  0  0
  9 14  1  0  0  0  0
 10 13  1  0  0  0  0
 10 32  1  0  0  0  0
 10 33  1  0  0  0  0
 11 12  2  0  0  0  0
 11 15  1  0  0  0  0
 12 16  1  0  0  0  0
 14 17  1  0  0  0  0
 14 20  2  0  0  0  0
 15 18  2  0  0  0  0
 15 34  1  0  0  0  0
 16 19  2  0  0  0  0
 16 35  1  0  0  0  0
 18 19  1  0  0  0  0
 19 36  1  0  0  0  0
 21 38  1  0  0  0  0
 23 24  1  0  0  0  0
 23 25  2  0  0  0  0
 24 26  2  0  0  0  0
 24 27  1  0  0  0  0
 25 28  1  0  0  0  0
 25 42  1  0  0  0  0
 26 29  1  0  0  0  0
 26 43  1  0  0  0  0
 27 44  1  0  0  0  0
 27 45  1  0  0  0  0
 27 46  1  0  0  0  0
 28 29  2  0  0  0  0
 28 47  1  0  0  0  0
 29 48  1  0  0  0  0
M  END
> <PUBCHEM_COMPOUND_CID>
49830379

> <PUBCHEM_CONFORMER_RMSD>
0.8

> <PUBCHEM_CONFORMER_DIVERSEORDER>
1
13
14
2
12
8
11
7
4
16
3
15
5
6
9
10

> <PUBCHEM_MMFF94_PARTIAL_CHARGES>
40
1 -0.08
10 0.18
11 -0.14
12 0.05
13 -0.14
15 -0.15
16 -0.15
17 0.3
18 0.12
19 -0.15
2 -0.57
20 0.41
21 0.47
22 0.69
23 0.12
24 -0.14
25 -0.15
26 -0.15
27 0.14
28 -0.15
29 -0.15
3 -0.55
34 0.15
35 0.15
36 0.15
37 0.37
38 0.15
39 0.4
4 -0.57
40 0.4
41 0.37
42 0.15
43 0.15
47 0.15
48 0.15
5 -0.62
6 -0.9
7 -0.55
8 0.14
9 -0.05

> <PUBCHEM_EFFECTIVE_ROTOR_COUNT>
4.4

> <PUBCHEM_PHARMACOPHORE_FEATURES>
12
1 2 acceptor
1 3 donor
1 4 acceptor
1 6 cation
1 6 donor
1 7 donor
3 4 5 21 cation
5 1 9 13 14 17 rings
6 11 12 15 16 18 19 rings
6 23 24 25 26 28 29 rings
6 4 5 14 17 20 21 rings
6 8 9 10 11 12 13 rings

> <PUBCHEM_HEAVY_ATOM_COUNT>
29

> <PUBCHEM_ATOM_DEF_STEREO_COUNT>
0

> <PUBCHEM_ATOM_UDEF_STEREO_COUNT>
0

> <PUBCHEM_BOND_DEF_STEREO_COUNT>
0

> <PUBCHEM_BOND_UDEF_STEREO_COUNT>
0

> <PUBCHEM_ISOTOPIC_ATOM_COUNT>
0

> <PUBCHEM_COMPONENT_COUNT>
1

> <PUBCHEM_CACTVS_TAUTO_COUNT>
12

> <PUBCHEM_CONFORMER_ID>
02F859EB00000001

> <PUBCHEM_MMFF94_ENERGY>
99.8641

> <PUBCHEM_FEATURE_SELFOVERLAP>
61.109

> <PUBCHEM_SHAPE_FINGERPRINT>
100830 39 18337107861860590429
10165383 225 18201151183639251512
10316853 100 18408325505870407362
10411042 1 18267585703186576458
10580692 12 18410292523882887057
117089 54 17842005377865179478
11719270 70 18202845452481977399
11991303 11 13695875856896303881
12166972 35 18341614841004568713
12236239 1 18273496793176411641
13383665 225 17967830335962514692
13533116 47 18272088326748829072
13685833 64 18410293605401956979
13782708 43 18040149608939374931
13885169 127 18408603635341459149
13989917 61 18412267263493191486
14170010 4 18411698803201535832
14400156 413 18270668874497445721
14856354 85 14851608787339901371
14933364 13 18408603678180316849
15183329 4 18040712559362061177
15352257 5 18408323289698703647
15361156 5 17968668219202961335
15419008 47 17822003199275272717
15419008 91 18189313771764707173
19841028 212 18263078821798783618
20028762 73 18343866593462856542
21049683 271 18409453592517081532
21130935 74 18341333383529012779
21197605 99 18342177799700937550
21267235 1 18341334414378958454
21279426 13 18334571318230193653
21315763 28 18411135862270448721
22224240 67 11887949947742140605
23559900 14 18410569626292805281
23569943 247 18045782286623469714
255183 451 18199478675749357438
3004659 81 18187363233440254873
3103668 31 17823410497161125317
335352 9 18409168826951083806
3633792 109 18411979123243526617
4073 2 18041563666881861547
4098825 35 18409446982166163241
4144715 1 18114749351729496697
4340502 62 14333412242117810988
46194498 28 17894627089214872460
465052 167 18343866606700465494
59755656 215 17894629236360643531
6441014 3 17333375597807346742
9831232 110 18409169874617564998
99344 41 18342175557965203895

> <PUBCHEM_SHAPE_MULTIPOLES>
569.88
23.88
3.11
0.69
35.82
0.15
0
-9.58
-0.42
-3.82
0.28
-0.03
0.02
1.48

> <PUBCHEM_SHAPE_SELFOVERLAP>
1263.5

> <PUBCHEM_SHAPE_VOLUME>
305.4

> <PUBCHEM_COORDINATE_TYPE>
2
5
10

$$$$
10043997
  -OEChem-05102415023D

 44 47  0     0  0  0  0  0  0999 V2000
    5.7210   -1.7061   -0.8192 O   0  0  0  0  0  0  0  0  0  0  0  0
   -2.6377    0.1975   -1.2153 O   0  0  0  0  0  0  0  0  0  0  0  0
   -1.7585   -0.5526    0.8228 N   0  0  0  0  0  0  0  0  0  0  0  0
    7.1922    0.1355   -0.4380 N   0  0  0  0  0  0  0  0  0  0  0  0
   -4.0378   -0.2503    0.6035 N   0  0  0  0  0  0  0  0  0  0  0  0
    6.0777    2.1217    0.4249 N   0  0  0  0  0  0  0  0  0  0  0  0
    3.7326    2.2049    0.8448 N   0  0  0  0  0  0  0  0  0  0  0  0
    3.7674   -0.7873   -0.1799 C   0  0  0  0  0  0  0  0  0  0  0  0
    2.3587   -0.7282    0.0755 C   0  0  0  0  0  0  0  0  0  0  0  0
    4.7855    0.1834   -0.0194 C   0  0  0  0  0  0  0  0  0  0  0  0
    5.9697   -0.4245   -0.4244 C   0  0  0  0  0  0  0  0  0  0  0  0
    1.8586   -1.0840    1.3297 C   0  0  0  0  0  0  0  0  0  0  0  0
    1.4816   -0.3136   -0.9289 C   0  0  0  0  0  0  0  0  0  0  0  0
    4.3870   -1.9149   -0.6675 C   0  0  0  0  0  0  0  0  0  0  0  0
   -0.3869   -0.6110    0.5736 C   0  0  0  0  0  0  0  0  0  0  0  0
    4.8742    1.5036    0.4154 C   0  0  0  0  0  0  0  0  0  0  0  0
    0.4874   -1.0256    1.5785 C   0  0  0  0  0  0  0  0  0  0  0  0
    0.1103   -0.2551   -0.6802 C   0  0  0  0  0  0  0  0  0  0  0  0
   -5.3212    0.0474    0.0874 C   0  0  0  0  0  0  0  0  0  0  0  0
   -7.6965    0.1906    0.3914 C   0  0  0  0  0  0  0  0  0  0  0  0
   -2.8002   -0.1626   -0.0537 C   0  0  0  0  0  0  0  0  0  0  0  0
   -6.4319   -0.1031    0.9013 C   0  0  0  0  0  0  0  0  0  0  0  0
   -5.4398    0.4831   -1.2222 C   0  0  0  0  0  0  0  0  0  0  0  0
    7.1470    1.4090    0.0033 C   0  0  0  0  0  0  0  0  0  0  0  0
   -7.8327    0.6306   -0.9253 C   0  0  0  0  0  0  0  0  0  0  0  0
   -6.7044    0.7769   -1.7320 C   0  0  0  0  0  0  0  0  0  0  0  0
   -8.9033    0.0348    1.2540 C   0  0  0  0  0  0  0  0  0  0  0  0
    2.5260   -1.4081    2.1249 H   0  0  0  0  0  0  0  0  0  0  0  0
    1.8537   -0.0314   -1.9113 H   0  0  0  0  0  0  0  0  0  0  0  0
    4.0406   -2.9006   -0.9453 H   0  0  0  0  0  0  0  0  0  0  0  0
    0.1139   -1.3055    2.5602 H   0  0  0  0  0  0  0  0  0  0  0  0
   -0.4993    0.0758   -1.5087 H   0  0  0  0  0  0  0  0  0  0  0  0
   -2.0443   -0.8273    1.7594 H   0  0  0  0  0  0  0  0  0  0  0  0
   -6.3239   -0.4442    1.9279 H   0  0  0  0  0  0  0  0  0  0  0  0
   -4.0186   -0.5654    1.5702 H   0  0  0  0  0  0  0  0  0  0  0  0
   -4.6197    0.6222   -1.9103 H   0  0  0  0  0  0  0  0  0  0  0  0
    8.0962    1.9336    0.0234 H   0  0  0  0  0  0  0  0  0  0  0  0
   -8.8123    0.8644   -1.3337 H   0  0  0  0  0  0  0  0  0  0  0  0
    3.8373    3.1620    1.1539 H   0  0  0  0  0  0  0  0  0  0  0  0
    2.8211    1.7709    0.8500 H   0  0  0  0  0  0  0  0  0  0  0  0
   -6.8120    1.1200   -2.7570 H   0  0  0  0  0  0  0  0  0  0  0  0
   -8.7731   -0.7841    1.9697 H   0  0  0  0  0  0  0  0  0  0  0  0
   -9.0907    0.9598    1.8083 H   0  0  0  0  0  0  0  0  0  0  0  0
   -9.7902   -0.2010    0.6559 H   0  0  0  0  0  0  0  0  0  0  0  0
  1 11  1  0  0  0  0
  1 14  1  0  0  0  0
  2 21  2  0  0  0  0
  3 15  1  0  0  0  0
  3 21  1  0  0  0  0
  3 33  1  0  0  0  0
  4 11  2  0  0  0  0
  4 24  1  0  0  0  0
  5 19  1  0  0  0  0
  5 21  1  0  0  0  0
  5 35  1  0  0  0  0
  6 16  1  0  0  0  0
  6 24  2  0  0  0  0
  7 16  1  0  0  0  0
  7 39  1  0  0  0  0
  7 40  1  0  0  0  0
  8  9  1  0  0  0  0
  8 10  1  0  0  0  0
  8 14  2  0  0  0  0
  9 12  2  0  0  0  0
  9 13  1  0  0  0  0
 10 11  1  0  0  0  0
 10 16  2  0  0  0  0
 12 17  1  0  0  0  0
 12 28  1  0  0  0  0
 13 18  2  0  0  0  0
 13 29  1  0  0  0  0
 14 30  1  0  0  0  0
 15 17  2  0  0  0  0
 15 18  1  0  0  0  0
 17 31  1  0  0  0  0
 18 32  1  0  0  0  0
 19 22  1  0  0  0  0
 19 23  2  0  0  0  0
 20 22  2  0  0  0  0
 20 25  1  0  0  0  0
 20 27  1  0  0  0  0
 22 34  1  0  0  0  0
 23 26  1  0  0  0  0
 23 36  1  0  0  0  0
 24 37  1  0  0  0  0
 25 26  2  0  0  0  0
 25 38  1  0  0  0  0
 26 41  1  0  0  0  0
 27 42  1  0  0  0  0
 27 43  1  0  0  0  0
 27 44  1  0  0  0  0
M  END
> <PUBCHEM_COMPOUND_CID>
10043997

> <PUBCHEM_CONFORMER_RMSD>
0.8

> <PUBCHEM_CONFORMER_DIVERSEORDER>
1
16
12
18
8
14
9
11
2
17
4
10
13
15
7
5
3
6

> <PUBCHEM_MMFF94_PARTIAL_CHARGES>
40
1 -0.28
11 0.4
12 -0.15
13 -0.15
14 -0.01
15 0.12
16 0.41
17 -0.15
18 -0.15
19 0.12
2 -0.57
20 -0.14
21 0.69
22 -0.15
23 -0.15
24 0.47
25 -0.15
26 -0.15
27 0.14
28 0.15
29 0.15
3 -0.55
30 0.15
31 0.15
32 0.15
33 0.37
34 0.15
35 0.37
36 0.15
37 0.15
38 0.15
39 0.4
4 -0.57
40 0.4
41 0.15
5 -0.55
6 -0.62
7 -0.9
8 -0.05
9 0.05

> <PUBCHEM_EFFECTIVE_ROTOR_COUNT>
5

> <PUBCHEM_PHARMACOPHORE_FEATURES>
10
1 2 acceptor
1 3 donor
1 5 donor
1 7 cation
1 7 donor
3 4 6 24 cation
5 1 8 10 11 14 rings
6 19 20 22 23 25 26 rings
6 4 6 10 11 16 24 rings
6 9 12 13 15 17 18 rings

> <PUBCHEM_HEAVY_ATOM_COUNT>
27

> <PUBCHEM_ATOM_DEF_STEREO_COUNT>
0

> <PUBCHEM_ATOM_UDEF_STEREO_COUNT>
0

> <PUBCHEM_BOND_DEF_STEREO_COUNT>
0

> <PUBCHEM_BOND_UDEF_STEREO_COUNT>
0

> <PUBCHEM_ISOTOPIC_ATOM_COUNT>
0

> <PUBCHEM_COMPONENT_COUNT>
1

> <PUBCHEM_CACTVS_TAUTO_COUNT>
12

> <PUBCHEM_CONFORMER_ID>
0099425D00000001

> <PUBCHEM_MMFF94_ENERGY>
81.9622

> <PUBCHEM_FEATURE_SELFOVERLAP>
50.918

> <PUBCHEM_SHAPE_FINGERPRINT>
10 15 16588027939119446564
10066227 112 18341890801421936831
10299344 5 17132114632990596095
10319688 140 18193837041962848626
10411042 1 17982739568191811510
10638233 991 17846778520627365289
106641 1 15430036591235269140
11181472 205 18056479440536260961
11315181 36 18272370876764653715
11646440 116 17894635850568295669
11719270 70 15936406723830738963
11963148 33 14548730686158345868
12236239 1 17060342916328989798
12516196 113 17894349965218912525
12730499 353 18260829272294350690
12838862 33 16878213239183616959
13533116 47 17703509892259969126
13617811 41 14476967791591147136
13668630 136 12319733679187604477
14028597 1 13912591733003027877
14068700 675 15626224624216768081
14170010 4 18260832609088047564
14251764 18 16702301239957903871
14251764 46 17489588956829574462
14461889 52 16660369177598862147
14856354 85 16630521861196045837
14933364 13 18411982459979233317
15183329 4 15123793985458667923
15419008 47 18040992938880467109
1577012 14 17275100635372452061
15849732 13 18333452041131286311
18335252 114 18130783469156245128
18608769 82 17458345252021575453
20157964 124 18343303661131870374
20554085 129 17240479217284115384
20771845 171 16701752592092734708
21033648 29 18115864273599522312
21130935 74 16878217555499097771
21150785 3 17561362885356997105
21344244 78 13046212919282499862
21521721 280 18413390942690341451
221357 26 18342455920371214224
22149856 69 16661210218253182269
22224240 67 16732984236584774923
22956985 138 14998223049017611778
23081809 10 17131835343909840971
23424782 7 18335423521441278155
23516275 137 17202226065731610975
23522609 53 16773256057834241753
23576562 1 16271068488260385497
24771293 8 17604991588810665460
249057 3 18201719570261152766
249999 5 17023734616131160562
255183 451 17201093491798342782
3004659 81 15195280945366666779
3092352 35 17632578249752731799
335352 9 15123787371794419121
34797466 226 18342460322395902254
397830 11 18116724095786859387
4073 2 18335705000132915298
4093350 32 18343021073241678646
4325135 7 17060341816406009373
5104073 3 16734093553754912185
5283156 175 16702307828253184590
5385378 56 16443619117236167858
5758199 1 17603868888722932379
58902169 19 17489582398293564964
59682541 35 16950286234568203401
67123 10 18343866628734607267

> <PUBCHEM_SHAPE_MULTIPOLES>
519
26.39
1.5
1.29
29.72
0.32
0.04
7.64
0.33
-2.92
-0.2
1.06
-0.01
2.31

> <PUBCHEM_SHAPE_SELFOVERLAP>
1153.666

> <PUBCHEM_SHAPE_VOLUME>
275.7

> <PUBCHEM_COORDINATE_TYPE>
2
5
10

$$$$
10338500
  -OEChem-05102415023D

 44 47  0     0  0  0  0  0  0999 V2000
    5.6185    1.3723    1.3259 O   0  0  0  0  0  0  0  0  0  0  0  0
   -2.7267   -0.6192    1.1250 O   0  0  0  0  0  0  0  0  0  0  0  0
   -1.8613    0.7386   -0.5771 N   0  0  0  0  0  0  0  0  0  0  0  0
   -4.1377    0.3665   -0.4582 N   0  0  0  0  0  0  0  0  0  0  0  0
    7.0991   -0.2463    0.3827 N   0  0  0  0  0  0  0  0  0  0  0  0
    5.9926   -1.8695   -1.0569 N   0  0  0  0  0  0  0  0  0  0  0  0
    3.6462   -1.8336   -1.4760 N   0  0  0  0  0  0  0  0  0  0  0  0
    3.6676    0.6864    0.4353 C   0  0  0  0  0  0  0  0  0  0  0  0
    2.2581    0.7004    0.1777 C   0  0  0  0  0  0  0  0  0  0  0  0
    4.6908   -0.1777   -0.0240 C   0  0  0  0  0  0  0  0  0  0  0  0
    5.8731    0.2810    0.5483 C   0  0  0  0  0  0  0  0  0  0  0  0
    1.7502    1.4279   -0.9004 C   0  0  0  0  0  0  0  0  0  0  0  0
    1.3881   -0.0146    1.0035 C   0  0  0  0  0  0  0  0  0  0  0  0
   -0.4890    0.7257   -0.3254 C   0  0  0  0  0  0  0  0  0  0  0  0
    4.2826    1.6086    1.2505 C   0  0  0  0  0  0  0  0  0  0  0  0
    0.3782    1.4407   -1.1516 C   0  0  0  0  0  0  0  0  0  0  0  0
    0.0161   -0.0019    0.7523 C   0  0  0  0  0  0  0  0  0  0  0  0
    4.7854   -1.2942   -0.8511 C   0  0  0  0  0  0  0  0  0  0  0  0
   -5.4169   -0.0871   -0.0584 C   0  0  0  0  0  0  0  0  0  0  0  0
   -6.5453    0.2919   -0.7682 C   0  0  0  0  0  0  0  0  0  0  0  0
   -2.8967    0.0860    0.1354 C   0  0  0  0  0  0  0  0  0  0  0  0
   -5.5090   -0.9125    1.0519 C   0  0  0  0  0  0  0  0  0  0  0  0
   -7.7975   -0.1659   -0.3580 C   0  0  0  0  0  0  0  0  0  0  0  0
    7.0595   -1.3174   -0.4357 C   0  0  0  0  0  0  0  0  0  0  0  0
   -6.4598    1.1810   -1.9664 C   0  0  0  0  0  0  0  0  0  0  0  0
   -6.7611   -1.3703    1.4619 C   0  0  0  0  0  0  0  0  0  0  0  0
   -7.9053   -0.9969    0.7571 C   0  0  0  0  0  0  0  0  0  0  0  0
    2.4120    1.9899   -1.5554 H   0  0  0  0  0  0  0  0  0  0  0  0
    1.7663   -0.5880    1.8469 H   0  0  0  0  0  0  0  0  0  0  0  0
    3.9315    2.4549    1.8242 H   0  0  0  0  0  0  0  0  0  0  0  0
   -0.0014    2.0118   -1.9951 H   0  0  0  0  0  0  0  0  0  0  0  0
   -0.5878   -0.5803    1.4367 H   0  0  0  0  0  0  0  0  0  0  0  0
   -2.1523    1.2913   -1.3797 H   0  0  0  0  0  0  0  0  0  0  0  0
   -4.1096    0.9691   -1.2749 H   0  0  0  0  0  0  0  0  0  0  0  0
   -4.6805   -1.2504    1.6548 H   0  0  0  0  0  0  0  0  0  0  0  0
   -8.6994    0.1150   -0.8953 H   0  0  0  0  0  0  0  0  0  0  0  0
   -6.0307    2.1515   -1.6960 H   0  0  0  0  0  0  0  0  0  0  0  0
   -5.8506    0.7158   -2.7486 H   0  0  0  0  0  0  0  0  0  0  0  0
   -7.4474    1.3746   -2.3995 H   0  0  0  0  0  0  0  0  0  0  0  0
    8.0118   -1.8024   -0.6216 H   0  0  0  0  0  0  0  0  0  0  0  0
    3.7552   -2.6448   -2.0698 H   0  0  0  0  0  0  0  0  0  0  0  0
    2.7320   -1.4267   -1.3424 H   0  0  0  0  0  0  0  0  0  0  0  0
   -6.8469   -2.0176    2.3300 H   0  0  0  0  0  0  0  0  0  0  0  0
   -8.8802   -1.3533    1.0766 H   0  0  0  0  0  0  0  0  0  0  0  0
  1 11  1  0  0  0  0
  1 15  1  0  0  0  0
  2 21  2  0  0  0  0
  3 14  1  0  0  0  0
  3 21  1  0  0  0  0
  3 33  1  0  0  0  0
  4 19  1  0  0  0  0
  4 21  1  0  0  0  0
  4 34  1  0  0  0  0
  5 11  2  0  0  0  0
  5 24  1  0  0  0  0
  6 18  1  0  0  0  0
  6 24  2  0  0  0  0
  7 18  1  0  0  0  0
  7 41  1  0  0  0  0
  7 42  1  0  0  0  0
  8  9  1  0  0  0  0
  8 10  1  0  0  0  0
  8 15  2  0  0  0  0
  9 12  2  0  0  0  0
  9 13  1  0  0  0  0
 10 11  1  0  0  0  0
 10 18  2  0  0  0  0
 12 16  1  0  0  0  0
 12 28  1  0  0  0  0
 13 17  2  0  0  0  0
 13 29  1  0  0  0  0
 14 16  2  0  0  0  0
 14 17  1  0  0  0  0
 15 30  1  0  0  0  0
 16 31  1  0  0  0  0
 17 32  1  0  0  0  0
 19 20  1  0  0  0  0
 19 22  2  0  0  0  0
 20 23  2  0  0  0  0
 20 25  1  0  0  0  0
 22 26  1  0  0  0  0
 22 35  1  0  0  0  0
 23 27  1  0  0  0  0
 23 36  1  0  0  0  0
 24 40  1  0  0  0  0
 25 37  1  0  0  0  0
 25 38  1  0  0  0  0
 25 39  1  0  0  0  0
 26 27  2  0  0  0  0
 26 43  1  0  0  0  0
 27 44  1  0  0  0  0
M  END
> <PUBCHEM_COMPOUND_CID>
10338500

> <PUBCHEM_CONFORMER_RMSD>
0.8

> <PUBCHEM_CONFORMER_DIVERSEORDER>
1
12
4
13
10
7
9
5
2
8
11
3
6

> <PUBCHEM_MMFF94_PARTIAL_CHARGES>
40
1 -0.28
11 0.4
12 -0.15
13 -0.15
14 0.12
15 -0.01
16 -0.15
17 -0.15
18 0.41
19 0.12
2 -0.57
20 -0.14
21 0.69
22 -0.15
23 -0.15
24 0.47
25 0.14
26 -0.15
27 -0.15
28 0.15
29 0.15
3 -0.55
30 0.15
31 0.15
32 0.15
33 0.37
34 0.37
35 0.15
36 0.15
4 -0.55
40 0.15
41 0.4
42 0.4
43 0.15
44 0.15
5 -0.57
6 -0.62
7 -0.9
8 -0.05
9 0.05

> <PUBCHEM_EFFECTIVE_ROTOR_COUNT>
5

> <PUBCHEM_PHARMACOPHORE_FEATURES>
10
1 2 acceptor
1 3 donor
1 4 donor
1 7 cation
1 7 donor
3 5 6 24 cation
5 1 8 10 11 15 rings
6 19 20 22 23 26 27 rings
6 5 6 10 11 18 24 rings
6 9 12 13 14 16 17 rings

> <PUBCHEM_HEAVY_ATOM_COUNT>
27

> <PUBCHEM_ATOM_DEF_STEREO_COUNT>
0

> <PUBCHEM_ATOM_UDEF_STEREO_COUNT>
0

> <PUBCHEM_BOND_DEF_STEREO_COUNT>
0

> <PUBCHEM_BOND_UDEF_STEREO_COUNT>
0

> <PUBCHEM_ISOTOPIC_ATOM_COUNT>
0

> <PUBCHEM_COMPONENT_COUNT>
1

> <PUBCHEM_CACTVS_TAUTO_COUNT>
12

> <PUBCHEM_CONFORMER_ID>
009DC0C400000001

> <PUBCHEM_MMFF94_ENERGY>
84.0569

> <PUBCHEM_FEATURE_SELFOVERLAP>
50.918

> <PUBCHEM_SHAPE_FINGERPRINT>
10299344 5 16702302360432697567
11181472 205 12036541231345254551
11524674 6 18412544345229924703
11719270 70 18040429992857567779
11963148 33 17458337563355870995
12236239 1 16128655254179417416
12516196 113 18334010605554014593
13533116 47 17561365067406391138
13668630 136 18260551139023365635
13685833 64 18412829079231556110
14028597 1 16271938068946066331
14068700 675 16732984223953276333
14170010 4 18343020008321852024
14251764 18 16128654158588217025
14294032 229 16517082909326379189
14856354 85 16008753524625351275
15119646 104 16773801372240637655
15183329 4 15791733001328288007
15328684 2 15625955178964483299
15352257 5 18412828001585746191
15419008 47 18335412470195585053
15419008 91 18115006594084602869
15510794 2 18410009949352266131
15716309 27 17418375796802096113
1577012 14 15068337891555059405
15840311 113 15339112477956880104
15849732 13 18334856134380081543
18681886 176 17749104534866366337
19377110 9 15841278077649863343
20554085 129 12319738046689427132
21150785 3 15357698599782473254
21267235 1 17603309280517843593
21315759 40 16845286172850899757
21344244 78 16773789252845092914
22224240 67 12751235900300080893
22956985 138 16590811739991042642
23081809 10 16271924939351835441
23559900 14 18201147871374888729
23569943 247 17973162825222387394
23576562 1 15937275432527327399
3004659 81 17095244739034753156
3383291 50 18187088390632112899
34797466 226 18187086182818241236
3633792 109 18130222667065792769
397830 11 18193553600364811785
4073 2 18271240646460437298
4340502 62 17775567554942949198
5758199 1 11959735975720028381
59755656 215 18186237312143296707

> <PUBCHEM_SHAPE_MULTIPOLES>
519
24.85
1.57
1.39
19.65
0.06
0.15
-7.64
1.76
0.49
0.29
-1.22
-0.08
3.42

> <PUBCHEM_SHAPE_SELFOVERLAP>
1154.342

> <PUBCHEM_SHAPE_VOLUME>
275.3

> <PUBCHEM_COORDINATE_TYPE>
2
5
10

$$$$
49830377
  -OEChem-05102415023D

 45 48  0     0  0  0  0  0  0999 V2000
   -6.4532   -2.3432    0.4586 S   0  0  0  0  0  0  0  0  0  0  0  0
   -3.1848    0.9915    1.5116 O   0  0  0  0  0  0  0  0  0  0  0  0
    4.3178   -1.0451   -0.6635 O   0  0  0  0  0  0  0  0  0  0  0  0
   -2.1525   -0.7015    0.2569 N   0  0  0  0  0  0  0  0  0  0  0  0
    3.2760    0.6383    0.5896 N   0  0  0  0  0  0  0  0  0  0  0  0
   -7.9194   -0.5147   -0.8084 N   0  0  0  0  0  0  0  0  0  0  0  0
   -6.9602    1.6642   -1.2676 N   0  0  0  0  0  0  0  0  0  0  0  0
    5.5734    0.6471    0.3508 N   0  0  0  0  0  0  0  0  0  0  0  0
   -4.7509    2.2549   -0.6345 N   0  0  0  0  0  0  0  0  0  0  0  0
   -4.5558   -0.6140    0.5348 C   0  0  0  0  0  0  0  0  0  0  0  0
   -5.6412    0.0347   -0.1339 C   0  0  0  0  0  0  0  0  0  0  0  0
   -0.7796   -0.3634    0.3421 C   0  0  0  0  0  0  0  0  0  0  0  0
   -6.7369   -0.8128   -0.2356 C   0  0  0  0  0  0  0  0  0  0  0  0
   -3.2627   -0.0435    0.8188 C   0  0  0  0  0  0  0  0  0  0  0  0
   -4.8621   -1.9046    0.9083 C   0  0  0  0  0  0  0  0  0  0  0  0
   -5.7959    1.3124   -0.6814 C   0  0  0  0  0  0  0  0  0  0  0  0
    1.9240    0.3040    0.5069 C   0  0  0  0  0  0  0  0  0  0  0  0
   -0.3818    0.7626    1.0631 C   0  0  0  0  0  0  0  0  0  0  0  0
    0.1745   -1.1557   -0.2962 C   0  0  0  0  0  0  0  0  0  0  0  0
    0.9699    1.0964    1.1455 C   0  0  0  0  0  0  0  0  0  0  0  0
    1.5263   -0.8220   -0.2140 C   0  0  0  0  0  0  0  0  0  0  0  0
    4.3879   -0.0281    0.0191 C   0  0  0  0  0  0  0  0  0  0  0  0
   -7.9396    0.7391   -1.2946 C   0  0  0  0  0  0  0  0  0  0  0  0
    6.8982    0.3127   -0.0171 C   0  0  0  0  0  0  0  0  0  0  0  0
    7.9615    1.1083    0.4094 C   0  0  0  0  0  0  0  0  0  0  0  0
    7.1411   -0.8117   -0.8060 C   0  0  0  0  0  0  0  0  0  0  0  0
    9.2679    0.7796    0.0471 C   0  0  0  0  0  0  0  0  0  0  0  0
    8.4474   -1.1405   -1.1682 C   0  0  0  0  0  0  0  0  0  0  0  0
    9.5108   -0.3449   -0.7417 C   0  0  0  0  0  0  0  0  0  0  0  0
   -2.3484   -1.5333   -0.2968 H   0  0  0  0  0  0  0  0  0  0  0  0
   -4.2336   -2.6166    1.4260 H   0  0  0  0  0  0  0  0  0  0  0  0
   -1.0604    1.4237    1.5829 H   0  0  0  0  0  0  0  0  0  0  0  0
   -0.1234   -2.0355   -0.8611 H   0  0  0  0  0  0  0  0  0  0  0  0
    1.2670    1.9766    1.7104 H   0  0  0  0  0  0  0  0  0  0  0  0
    2.2020   -1.4849   -0.7351 H   0  0  0  0  0  0  0  0  0  0  0  0
    3.4875    1.4719    1.1324 H   0  0  0  0  0  0  0  0  0  0  0  0
   -8.8643    1.0462   -1.7707 H   0  0  0  0  0  0  0  0  0  0  0  0
    5.4786    1.4801    0.9261 H   0  0  0  0  0  0  0  0  0  0  0  0
   -4.9077    3.1664   -1.0440 H   0  0  0  0  0  0  0  0  0  0  0  0
   -3.8567    2.0449   -0.2193 H   0  0  0  0  0  0  0  0  0  0  0  0
    7.7862    1.9873    1.0244 H   0  0  0  0  0  0  0  0  0  0  0  0
    6.3738   -1.4767   -1.1755 H   0  0  0  0  0  0  0  0  0  0  0  0
   10.0959    1.3990    0.3791 H   0  0  0  0  0  0  0  0  0  0  0  0
    8.6381   -2.0159   -1.7825 H   0  0  0  0  0  0  0  0  0  0  0  0
   10.5278   -0.6009   -1.0238 H   0  0  0  0  0  0  0  0  0  0  0  0
  1 13  1  0  0  0  0
  1 15  1  0  0  0  0
  2 14  2  0  0  0  0
  3 22  2  0  0  0  0
  4 12  1  0  0  0  0
  4 14  1  0  0  0  0
  4 30  1  0  0  0  0
  5 17  1  0  0  0  0
  5 22  1  0  0  0  0
  5 36  1  0  0  0  0
  6 13  2  0  0  0  0
  6 23  1  0  0  0  0
  7 16  1  0  0  0  0
  7 23  2  0  0  0  0
  8 22  1  0  0  0  0
  8 24  1  0  0  0  0
  8 38  1  0  0  0  0
  9 16  1  0  0  0  0
  9 39  1  0  0  0  0
  9 40  1  0  0  0  0
 10 11  1  0  0  0  0
 10 14  1  0  0  0  0
 10 15  2  0  0  0  0
 11 13  1  0  0  0  0
 11 16  2  0  0  0  0
 12 18  2  0  0  0  0
 12 19  1  0  0  0  0
 15 31  1  0  0  0  0
 17 20  2  0  0  0  0
 17 21  1  0  0  0  0
 18 20  1  0  0  0  0
 18 32  1  0  0  0  0
 19 21  2  0  0  0  0
 19 33  1  0  0  0  0
 20 34  1  0  0  0  0
 21 35  1  0  0  0  0
 23 37  1  0  0  0  0
 24 25  2  0  0  0  0
 24 26  1  0  0  0  0
 25 27  1  0  0  0  0
 25 41  1  0  0  0  0
 26 28  2  0  0  0  0
 26 42  1  0  0  0  0
 27 29  2  0  0  0  0
 27 43  1  0  0  0  0
 28 29  1  0  0  0  0
 28 44  1  0  0  0  0
 29 45  1  0  0  0  0
M  END
> <PUBCHEM_COMPOUND_CID>
49830377

> <PUBCHEM_CONFORMER_RMSD>
0.8

> <PUBCHEM_CONFORMER_DIVERSEORDER>
1
23
28
16
2
36
27
30
17
22
26
8
33
31
4
24
11
20
32
12
35
21
7
15
9
14
5
13
34
3
25
29
10
6
18
19

> <PUBCHEM_MMFF94_PARTIAL_CHARGES>
44
1 -0.08
10 -0.09
12 0.12
13 0.3
14 0.72
15 -0.11
16 0.41
17 0.12
18 -0.15
19 -0.15
2 -0.57
20 -0.15
21 -0.15
22 0.69
23 0.47
24 0.12
25 -0.15
26 -0.15
27 -0.15
28 -0.15
29 -0.15
3 -0.57
30 0.37
31 0.15
32 0.15
33 0.15
34 0.15
35 0.15
36 0.37
37 0.15
38 0.37
39 0.4
4 -0.55
40 0.4
41 0.15
42 0.15
43 0.15
44 0.15
45 0.15
5 -0.55
6 -0.57
7 -0.62
8 -0.55
9 -0.9

> <PUBCHEM_EFFECTIVE_ROTOR_COUNT>
7

> <PUBCHEM_PHARMACOPHORE_FEATURES>
13
1 2 acceptor
1 3 acceptor
1 4 donor
1 5 donor
1 6 acceptor
1 8 donor
1 9 cation
1 9 donor
3 6 7 23 cation
5 1 10 11 13 15 rings
6 12 17 18 19 20 21 rings
6 24 25 26 27 28 29 rings
6 6 7 11 13 16 23 rings

> <PUBCHEM_HEAVY_ATOM_COUNT>
29

> <PUBCHEM_ATOM_DEF_STEREO_COUNT>
0

> <PUBCHEM_ATOM_UDEF_STEREO_COUNT>
0

> <PUBCHEM_BOND_DEF_STEREO_COUNT>
0

> <PUBCHEM_BOND_UDEF_STEREO_COUNT>
0

> <PUBCHEM_ISOTOPIC_ATOM_COUNT>
0

> <PUBCHEM_COMPONENT_COUNT>
1

> <PUBCHEM_CACTVS_TAUTO_COUNT>
24

> <PUBCHEM_CONFORMER_ID>
02F859E900000001

> <PUBCHEM_MMFF94_ENERGY>
94.7587

> <PUBCHEM_FEATURE_SELFOVERLAP>
66.101

> <PUBCHEM_SHAPE_FINGERPRINT>
10050765 1 17842007593919603466
106641 1 12103842359376651858
10669705 176 18410012117851723830
11135926 11 18131641066967423275
11181472 205 17095803210128497500
11315181 36 18342461448204659827
11638347 137 11743847950444547124
11672396 167 18128822933515524934
12082328 90 17988926639182450493
12089408 11 16298385782244203922
12539745 222 14490775467936721601
12758862 11 18410572928600306528
12838862 33 18131339818419867034
13553643 46 13623530182412192950
13885169 127 18334013895509071130
13974486 27 18187649166620894213
14251764 18 16805321093986459936
14251764 46 14549023182136739370
14617042 71 13623829267240139742
150020 25 18412259536772757052
15131766 46 17755307013567348668
15183329 4 18187081732772946393
15198563 99 18342182107738245316
15328684 2 16951388963180031136
15419008 47 18343013398125428888
15419008 91 18339626932761544136
15461852 350 18259989296480579079
15510794 2 18413673521326226831
1577012 14 17312814970388770411
15849732 13 18413108381540254476
15979999 66 18410013264814785556
1754908 1 11815895644113359582
1818759 1 15267345132585576164
19315958 150 12035447238813699280
195137 175 16298389063082136558
19841028 212 18187643554142545098
21150785 3 17275101730420411220
21267235 1 18060145361977982986
21792961 116 18272371953451121634
23576562 1 18116432733352347701
249057 3 17822295720891465254
3092352 35 16153426159994186962
335352 9 17917714622059176804
395649 100 18272091565592267169
4339292 15 10375858668520216937
44802255 64 18187636987137165991
5219985 9 15698283313413314474
54039377 194 16845285073513235397
5758199 1 15719109158617549704
5969126 39 17060340690834831097
6081469 158 18412263918419757244
6201320 215 16951109678557065836
6691757 9 16298395660558365129
67123 10 18341614841446958774
68570916 9 10663515124854477928
9962374 69 16486963025497344360

> <PUBCHEM_SHAPE_MULTIPOLES>
559.03
32.7
1.7
1.12
41.61
0.13
0.02
0.07
10.84
-2.88
0.07
-0.72
-0.16
2.59

> <PUBCHEM_SHAPE_SELFOVERLAP>
1219.919

> <PUBCHEM_SHAPE_VOLUME>
302.5

> <PUBCHEM_COORDINATE_TYPE>
2
5
10

$$$$
49830375
  -OEChem-05102415023D

 45 49  0     0  0  0  0  0  0999 V2000
    5.7269    1.3907    0.4103 S   0  0  0  0  0  0  0  0  0  0  0  0
   -3.1119   -1.0566    0.3185 O   0  0  0  0  0  0  0  0  0  0  0  0
    6.6030   -1.0955    0.1425 N   0  0  0  0  0  0  0  0  0  0  0  0
   -2.3097    1.0844   -0.1934 N   0  0  0  0  0  0  0  0  0  0  0  0
    5.0350   -2.8840   -0.2769 N   0  0  0  0  0  0  0  0  0  0  0  0
    2.7619   -2.5701   -0.6338 N   0  0  0  0  0  0  0  0  0  0  0  0
   -4.5858    0.6910   -0.1739 N   0  0  0  0  0  0  0  0  0  0  0  0
    2.1937    3.0794   -0.4873 C   0  0  0  0  0  0  0  0  0  0  0  0
    3.3265    0.4849    0.1328 C   0  0  0  0  0  0  0  0  0  0  0  0
    3.4659    3.0267    0.3674 C   0  0  0  0  0  0  0  0  0  0  0  0
    1.3013    1.8807   -0.2352 C   0  0  0  0  0  0  0  0  0  0  0  0
    1.8636    0.6132    0.0581 C   0  0  0  0  0  0  0  0  0  0  0  0
    4.0549    1.6535    0.2901 C   0  0  0  0  0  0  0  0  0  0  0  0
    4.1979   -0.6609    0.0167 C   0  0  0  0  0  0  0  0  0  0  0  0
   -0.0896    2.0233   -0.3354 C   0  0  0  0  0  0  0  0  0  0  0  0
    1.0064   -0.4638    0.3104 C   0  0  0  0  0  0  0  0  0  0  0  0
    5.5293   -0.2823    0.1753 C   0  0  0  0  0  0  0  0  0  0  0  0
   -0.9255    0.9332   -0.1068 C   0  0  0  0  0  0  0  0  0  0  0  0
   -0.3790   -0.3038    0.2237 C   0  0  0  0  0  0  0  0  0  0  0  0
    3.9928   -2.0260   -0.2312 C   0  0  0  0  0  0  0  0  0  0  0  0
    6.2632   -2.3732   -0.0844 C   0  0  0  0  0  0  0  0  0  0  0  0
   -3.3199    0.1140    0.0158 C   0  0  0  0  0  0  0  0  0  0  0  0
   -5.8519    0.0695   -0.0615 C   0  0  0  0  0  0  0  0  0  0  0  0
   -7.0136    0.8075   -0.2884 C   0  0  0  0  0  0  0  0  0  0  0  0
   -5.9384   -1.2810    0.2762 C   0  0  0  0  0  0  0  0  0  0  0  0
   -8.2620    0.1949   -0.1773 C   0  0  0  0  0  0  0  0  0  0  0  0
   -7.1866   -1.8937    0.3872 C   0  0  0  0  0  0  0  0  0  0  0  0
   -8.3484   -1.1557    0.1605 C   0  0  0  0  0  0  0  0  0  0  0  0
    1.6601    4.0122   -0.2702 H   0  0  0  0  0  0  0  0  0  0  0  0
    2.4552    3.0879   -1.5533 H   0  0  0  0  0  0  0  0  0  0  0  0
    4.1692    3.7935    0.0236 H   0  0  0  0  0  0  0  0  0  0  0  0
    3.2213    3.2462    1.4146 H   0  0  0  0  0  0  0  0  0  0  0  0
   -0.5147    2.9931   -0.5852 H   0  0  0  0  0  0  0  0  0  0  0  0
    1.3584   -1.3986    0.7265 H   0  0  0  0  0  0  0  0  0  0  0  0
   -0.9613   -1.1824    0.4637 H   0  0  0  0  0  0  0  0  0  0  0  0
   -2.6330    2.0175   -0.4366 H   0  0  0  0  0  0  0  0  0  0  0  0
    7.0819   -3.0829   -0.1209 H   0  0  0  0  0  0  0  0  0  0  0  0
    2.7438   -3.5616   -0.8387 H   0  0  0  0  0  0  0  0  0  0  0  0
    2.0994   -1.9824   -1.1190 H   0  0  0  0  0  0  0  0  0  0  0  0
   -4.6054    1.6766   -0.4233 H   0  0  0  0  0  0  0  0  0  0  0  0
   -6.9604    1.8606   -0.5523 H   0  0  0  0  0  0  0  0  0  0  0  0
   -5.0879   -1.9196    0.4670 H   0  0  0  0  0  0  0  0  0  0  0  0
   -9.1666    0.7694   -0.3538 H   0  0  0  0  0  0  0  0  0  0  0  0
   -7.2555   -2.9453    0.6502 H   0  0  0  0  0  0  0  0  0  0  0  0
   -9.3203   -1.6327    0.2470 H   0  0  0  0  0  0  0  0  0  0  0  0
  1 13  1  0  0  0  0
  1 17  1  0  0  0  0
  2 22  2  0  0  0  0
  3 17  2  0  0  0  0
  3 21  1  0  0  0  0
  4 18  1  0  0  0  0
  4 22  1  0  0  0  0
  4 36  1  0  0  0  0
  5 20  1  0  0  0  0
  5 21  2  0  0  0  0
  6 20  1  0  0  0  0
  6 38  1  0  0  0  0
  6 39  1  0  0  0  0
  7 22  1  0  0  0  0
  7 23  1  0  0  0  0
  7 40  1  0  0  0  0
  8 10  1  0  0  0  0
  8 11  1  0  0  0  0
  8 29  1  0  0  0  0
  8 30  1  0  0  0  0
  9 12  1  0  0  0  0
  9 13  2  0  0  0  0
  9 14  1  0  0  0  0
 10 13  1  0  0  0  0
 10 31  1  0  0  0  0
 10 32  1  0  0  0  0
 11 12  2  0  0  0  0
 11 15  1  0  0  0  0
 12 16  1  0  0  0  0
 14 17  1  0  0  0  0
 14 20  2  0  0  0  0
 15 18  2  0  0  0  0
 15 33  1  0  0  0  0
 16 19  2  0  0  0  0
 16 34  1  0  0  0  0
 18 19  1  0  0  0  0
 19 35  1  0  0  0  0
 21 37  1  0  0  0  0
 23 24  2  0  0  0  0
 23 25  1  0  0  0  0
 24 26  1  0  0  0  0
 24 41  1  0  0  0  0
 25 27  2  0  0  0  0
 25 42  1  0  0  0  0
 26 28  2  0  0  0  0
 26 43  1  0  0  0  0
 27 28  1  0  0  0  0
 27 44  1  0  0  0  0
 28 45  1  0  0  0  0
M  END
> <PUBCHEM_COMPOUND_CID>
49830375

> <PUBCHEM_CONFORMER_RMSD>
0.8

> <PUBCHEM_CONFORMER_DIVERSEORDER>
1
7
6
5
4
8
2
10
3
9

> <PUBCHEM_MMFF94_PARTIAL_CHARGES>
40
1 -0.08
10 0.18
11 -0.14
12 0.05
13 -0.14
15 -0.15
16 -0.15
17 0.3
18 0.12
19 -0.15
2 -0.57
20 0.41
21 0.47
22 0.69
23 0.12
24 -0.15
25 -0.15
26 -0.15
27 -0.15
28 -0.15
3 -0.57
33 0.15
34 0.15
35 0.15
36 0.37
37 0.15
38 0.4
39 0.4
4 -0.55
40 0.37
41 0.15
42 0.15
43 0.15
44 0.15
45 0.15
5 -0.62
6 -0.9
7 -0.55
8 0.14
9 -0.05

> <PUBCHEM_EFFECTIVE_ROTOR_COUNT>
4.4

> <PUBCHEM_PHARMACOPHORE_FEATURES>
12
1 2 acceptor
1 3 acceptor
1 4 donor
1 6 cation
1 6 donor
1 7 donor
3 3 5 21 cation
5 1 9 13 14 17 rings
6 11 12 15 16 18 19 rings
6 23 24 25 26 27 28 rings
6 3 5 14 17 20 21 rings
6 8 9 10 11 12 13 rings

> <PUBCHEM_HEAVY_ATOM_COUNT>
28

> <PUBCHEM_ATOM_DEF_STEREO_COUNT>
0

> <PUBCHEM_ATOM_UDEF_STEREO_COUNT>
0

> <PUBCHEM_BOND_DEF_STEREO_COUNT>
0

> <PUBCHEM_BOND_UDEF_STEREO_COUNT>
0

> <PUBCHEM_ISOTOPIC_ATOM_COUNT>
0

> <PUBCHEM_COMPONENT_COUNT>
1

> <PUBCHEM_CACTVS_TAUTO_COUNT>
12

> <PUBCHEM_CONFORMER_ID>
02F859E700000001

> <PUBCHEM_MMFF94_ENERGY>
95.1862

> <PUBCHEM_FEATURE_SELFOVERLAP>
61.109

> <PUBCHEM_SHAPE_FINGERPRINT>
10165383 225 18200588229343396616
10299344 5 18202565090513277455
10316853 100 18408044022161324290
10411042 1 18267022748864315338
10580692 12 18410292498245133945
11409948 8 18270667711989935298
117089 54 17912937076180455702
11719270 70 18131070437454130591
12166972 35 18342459257392232393
12236239 1 18273496788992253121
12623949 98 17774168873268817710
12717326 120 16444769353023828435
13383665 225 17822588152388667892
13533116 47 18343864441515118017
1361 2 18411136931074377042
13617811 41 15791729698493305623
13685833 64 18409730655765053273
13782708 43 17894906304690280651
13885169 127 18408884006738525517
13989917 61 18411984688836047974
14170010 4 18411135853105728672
14400156 413 18270386291593258961
14933364 13 18408040732637913865
15183329 4 18186236217596120641
15352257 5 18408041819122468299
15361156 5 17968386752995643703
15419008 47 17749101180507672909
15419008 91 18042666417232068117
15483637 11 18122343750771772222
15510794 2 18261112998735816139
17492 89 17905325123000750442
20028762 73 18343302539497111822
20157964 124 18341050804249951568
20771845 140 16559031575622474310
21033650 10 16516245120600747181
21049683 271 18409171009380786260
21130935 74 18341051913005485995
21197605 99 18341896316044569550
21267235 1 18341052935007027750
21315759 40 17846499258006808195
21315763 28 18411981382522840169
22224240 67 12031784760616683685
23522609 53 18120688818326286813
23559900 14 18337386141038202569
23569943 247 18046063757210267522
249057 25 18059869367654427057
255183 451 18198914626189336822
3004659 81 18186518808721216889
3103668 31 17823129022316276997
335352 9 18408887351911108606
34797466 226 16877944974772117204
3633792 109 18411134702719105761
4073 2 17969506085913360867
4340502 62 14620797093685351228
46194498 28 17822289115311399324
465052 167 18343585123038868230
59755656 215 17821445742547767851
6441014 3 17332528973727365006
9831232 110 18335703814816562607
99344 41 18342738503760808007
9962374 69 18340196487952075583

> <PUBCHEM_SHAPE_MULTIPOLES>
549.3
23.01
3.02
0.68
43.65
0.01
0.01
10.55
0.96
-5.16
-0.28
-0.06
-0.03
1.03

> <PUBCHEM_SHAPE_SELFOVERLAP>
1220.568

> <PUBCHEM_SHAPE_VOLUME>
292.7

> <PUBCHEM_COORDINATE_TYPE>
2
5
10

$$$$
9868229
  -OEChem-05102415033D

 44 47  0     0  0  0  0  0  0999 V2000
   -6.8001    0.3470    2.1633 S   0  0  0  0  0  0  0  0  0  0  0  0
    5.1269   -3.2464   -0.6226 F   0  0  0  0  0  0  0  0  0  0  0  0
    7.6500    2.4776    0.0556 F   0  0  0  0  0  0  0  0  0  0  0  0
    5.7155    3.0200   -0.7615 F   0  0  0  0  0  0  0  0  0  0  0  0
    5.9271    2.6507    1.3710 F   0  0  0  0  0  0  0  0  0  0  0  0
    1.8842    0.5070    0.3173 O   0  0  0  0  0  0  0  0  0  0  0  0
    0.7543   -1.5340    0.1001 N   0  0  0  0  0  0  0  0  0  0  0  0
    3.0526   -1.4708   -0.1212 N   0  0  0  0  0  0  0  0  0  0  0  0
   -7.9253    0.9775   -0.1679 N   0  0  0  0  0  0  0  0  0  0  0  0
   -6.5976    0.8680   -2.1937 N   0  0  0  0  0  0  0  0  0  0  0  0
   -4.3164    0.2184   -2.2025 N   0  0  0  0  0  0  0  0  0  0  0  0
   -4.6264   -0.1016    0.8714 C   0  0  0  0  0  0  0  0  0  0  0  0
   -3.2467   -0.4690    0.6739 C   0  0  0  0  0  0  0  0  0  0  0  0
   -5.5828    0.3019   -0.1128 C   0  0  0  0  0  0  0  0  0  0  0  0
   -6.8116    0.5744    0.4744 C   0  0  0  0  0  0  0  0  0  0  0  0
   -2.9126   -1.7977    0.4259 C   0  0  0  0  0  0  0  0  0  0  0  0
   -2.2553    0.5067    0.7322 C   0  0  0  0  0  0  0  0  0  0  0  0
   -0.5812   -1.1786    0.2923 C   0  0  0  0  0  0  0  0  0  0  0  0
   -5.1546   -0.1202    2.1440 C   0  0  0  0  0  0  0  0  0  0  0  0
   -1.5774   -2.1531    0.2346 C   0  0  0  0  0  0  0  0  0  0  0  0
   -0.9201    0.1514    0.5409 C   0  0  0  0  0  0  0  0  0  0  0  0
   -5.5113    0.4659   -1.5000 C   0  0  0  0  0  0  0  0  0  0  0  0
    4.3955   -1.0297   -0.1849 C   0  0  0  0  0  0  0  0  0  0  0  0
    5.9975    0.7515   -0.0578 C   0  0  0  0  0  0  0  0  0  0  0  0
    4.6747    0.3136    0.0058 C   0  0  0  0  0  0  0  0  0  0  0  0
    1.9015   -0.7036    0.1192 C   0  0  0  0  0  0  0  0  0  0  0  0
    5.4016   -1.9474   -0.4375 C   0  0  0  0  0  0  0  0  0  0  0  0
    7.0223   -0.1602   -0.3113 C   0  0  0  0  0  0  0  0  0  0  0  0
    6.7244   -1.5096   -0.5010 C   0  0  0  0  0  0  0  0  0  0  0  0
   -7.7254    1.0964   -1.4926 C   0  0  0  0  0  0  0  0  0  0  0  0
    6.3168    2.1942    0.1452 C   0  0  0  0  0  0  0  0  0  0  0  0
   -3.6776   -2.5688    0.3766 H   0  0  0  0  0  0  0  0  0  0  0  0
   -2.5047    1.5477    0.9240 H   0  0  0  0  0  0  0  0  0  0  0  0
   -4.6623   -0.3839    3.0707 H   0  0  0  0  0  0  0  0  0  0  0  0
   -1.3278   -3.1932    0.0409 H   0  0  0  0  0  0  0  0  0  0  0  0
   -0.2095    0.9632    0.6001 H   0  0  0  0  0  0  0  0  0  0  0  0
    0.9226   -2.5212   -0.0767 H   0  0  0  0  0  0  0  0  0  0  0  0
    3.9347    1.0740    0.2056 H   0  0  0  0  0  0  0  0  0  0  0  0
    2.9158   -2.4675   -0.2698 H   0  0  0  0  0  0  0  0  0  0  0  0
    8.0587    0.1614   -0.3646 H   0  0  0  0  0  0  0  0  0  0  0  0
    7.5221   -2.2197   -0.6985 H   0  0  0  0  0  0  0  0  0  0  0  0
   -8.5833    1.4181   -2.0727 H   0  0  0  0  0  0  0  0  0  0  0  0
   -4.3158    0.3509   -3.2054 H   0  0  0  0  0  0  0  0  0  0  0  0
   -3.4715   -0.0841   -1.7454 H   0  0  0  0  0  0  0  0  0  0  0  0
  1 15  1  0  0  0  0
  1 19  1  0  0  0  0
  2 27  1  0  0  0  0
  3 31  1  0  0  0  0
  4 31  1  0  0  0  0
  5 31  1  0  0  0  0
  6 26  2  0  0  0  0
  7 18  1  0  0  0  0
  7 26  1  0  0  0  0
  7 37  1  0  0  0  0
  8 23  1  0  0  0  0
  8 26  1  0  0  0  0
  8 39  1  0  0  0  0
  9 15  2  0  0  0  0
  9 30  1  0  0  0  0
 10 22  1  0  0  0  0
 10 30  2  0  0  0  0
 11 22  1  0  0  0  0
 11 43  1  0  0  0  0
 11 44  1  0  0  0  0
 12 13  1  0  0  0  0
 12 14  1  0  0  0  0
 12 19  2  0  0  0  0
 13 16  2  0  0  0  0
 13 17  1  0  0  0  0
 14 15  1  0  0  0  0
 14 22  2  0  0  0  0
 16 20  1  0  0  0  0
 16 32  1  0  0  0  0
 17 21  2  0  0  0  0
 17 33  1  0  0  0  0
 18 20  2  0  0  0  0
 18 21  1  0  0  0  0
 19 34  1  0  0  0  0
 20 35  1  0  0  0  0
 21 36  1  0  0  0  0
 23 25  1  0  0  0  0
 23 27  2  0  0  0  0
 24 25  2  0  0  0  0
 24 28  1  0  0  0  0
 24 31  1  0  0  0  0
 25 38  1  0  0  0  0
 27 29  1  0  0  0  0
 28 29  2  0  0  0  0
 28 40  1  0  0  0  0
 29 41  1  0  0  0  0
 30 42  1  0  0  0  0
M  END
> <PUBCHEM_COMPOUND_CID>
9868229

> <PUBCHEM_CONFORMER_RMSD>
0.8

> <PUBCHEM_CONFORMER_DIVERSEORDER>
1
19
14
20
10
13
18
8
7
21
11
16
15
4
12
17
9
2
5
6
3

> <PUBCHEM_MMFF94_PARTIAL_CHARGES>
43
1 -0.08
10 -0.62
11 -0.9
12 -0.05
13 0.05
15 0.3
16 -0.15
17 -0.15
18 0.12
19 -0.11
2 -0.19
20 -0.15
21 -0.15
22 0.41
23 0.12
24 -0.14
25 -0.15
26 0.69
27 0.19
28 -0.15
29 -0.15
3 -0.34
30 0.47
31 1.16
32 0.15
33 0.15
34 0.15
35 0.15
36 0.15
37 0.37
38 0.15
39 0.37
4 -0.34
40 0.15
41 0.15
42 0.15
43 0.4
44 0.4
5 -0.34
6 -0.57
7 -0.55
8 -0.55
9 -0.57

> <PUBCHEM_EFFECTIVE_ROTOR_COUNT>
6

> <PUBCHEM_PHARMACOPHORE_FEATURES>
11
1 11 cation
1 11 donor
1 6 acceptor
1 7 donor
1 8 donor
1 9 acceptor
3 9 10 30 cation
5 1 12 14 15 19 rings
6 13 16 17 18 20 21 rings
6 23 24 25 27 28 29 rings
6 9 10 14 15 22 30 rings

> <PUBCHEM_HEAVY_ATOM_COUNT>
31

> <PUBCHEM_ATOM_DEF_STEREO_COUNT>
0

> <PUBCHEM_ATOM_UDEF_STEREO_COUNT>
0

> <PUBCHEM_BOND_DEF_STEREO_COUNT>
0

> <PUBCHEM_BOND_UDEF_STEREO_COUNT>
0

> <PUBCHEM_ISOTOPIC_ATOM_COUNT>
0

> <PUBCHEM_COMPONENT_COUNT>
1

> <PUBCHEM_CACTVS_TAUTO_COUNT>
12

> <PUBCHEM_CONFORMER_ID>
009693C500000001

> <PUBCHEM_MMFF94_ENERGY>
86.3982

> <PUBCHEM_FEATURE_SELFOVERLAP>
55.95

> <PUBCHEM_SHAPE_FINGERPRINT>
10 15 17748828539840274192
10066227 112 18408886239108403306
10162869 55 18131342008610614390
10280341 67 17024008390959522829
10299344 5 17203608160119978599
10319926 262 16443071625144071329
10554248 39 18060144206537237734
10835480 77 18411982494402301434
11007060 377 18113902706206639451
11315181 36 16630521822546465259
11386260 185 18273220790357541932
11761917 142 16951673702136409885
12082328 90 18202002115080118303
125118 31 17894354380086934548
13008946 282 18200860839348983088
13878862 14 18342447158964776492
14068700 675 16415478233698492425
14429380 56 18341889684667084588
14598715 104 17676758812926248541
14856354 85 16200428079554756365
15183329 4 17203608181473326847
15276724 80 18271807882490656565
15400415 2 18340492274382919386
15419008 47 17821728316735900564
15419008 91 17821723957480939501
1577012 14 17561369474074245401
20157964 124 18413674600243609254
20281389 69 18187086156515421002
20554085 129 16949998127998289200
21033648 29 17676204684344990335
21150785 3 16845289445061876891
21859007 373 17676760985662404636
23081809 10 17489871509737711539
23522609 53 17202506466327115873
23559900 14 18201151161050792769
23576562 1 16916214636818711264
249057 25 17417539012355365186
2838139 119 18271528615290088267
328310 630 18272940444202453105
3918712 181 18268712900142875184
397830 11 17969236692152198331
4073 2 18262527008552973642
4169191 19 18341337768026146048
44555599 121 17988653968972983056
4760202 170 18272358759808480353
504579 68 17847064398119302724
5265222 85 14691992713893891805
54039377 194 17131824414246721375
58902169 19 17489585662552813412
6176135 31 13190336877286526512
6698420 124 18338248068234385955
6898599 12 18058167422106509630

> <PUBCHEM_SHAPE_MULTIPOLES>
581.95
26.92
2.39
1.54
6.76
0.38
-0.15
11.99
-3.18
6.38
-0.11
-4.25
0.43
2.18

> <PUBCHEM_SHAPE_SELFOVERLAP>
1283.263

> <PUBCHEM_SHAPE_VOLUME>
317.7

> <PUBCHEM_COORDINATE_TYPE>
2
5
10

$$$$
49830354
  -OEChem-05102415033D

 47 50  0     0  0  0  0  0  0999 V2000
    6.3606   -1.7908    1.1212 S   0  0  0  0  0  0  0  0  0  0  0  0
   -2.3021    0.1868    1.1202 O   0  0  0  0  0  0  0  0  0  0  0  0
   -1.3757   -0.6864   -0.8468 N   0  0  0  0  0  0  0  0  0  0  0  0
   -3.6608   -0.3836   -0.6957 N   0  0  0  0  0  0  0  0  0  0  0  0
    7.5035    0.5036    0.3947 N   0  0  0  0  0  0  0  0  0  0  0  0
    6.1393    2.2473   -0.5938 N   0  0  0  0  0  0  0  0  0  0  0  0
    3.8066    2.0079   -0.9506 N   0  0  0  0  0  0  0  0  0  0  0  0
    4.1336   -0.8226    0.2856 C   0  0  0  0  0  0  0  0  0  0  0  0
    2.7221   -0.7883   -0.0042 C   0  0  0  0  0  0  0  0  0  0  0  0
    5.1084    0.1982    0.0532 C   0  0  0  0  0  0  0  0  0  0  0  0
    6.3668   -0.2157    0.4704 C   0  0  0  0  0  0  0  0  0  0  0  0
    1.8246   -0.3168    0.9540 C   0  0  0  0  0  0  0  0  0  0  0  0
    2.2535   -1.2260   -1.2429 C   0  0  0  0  0  0  0  0  0  0  0  0
   -0.0098   -0.7209   -0.5654 C   0  0  0  0  0  0  0  0  0  0  0  0
    4.6778   -1.9511    0.8592 C   0  0  0  0  0  0  0  0  0  0  0  0
   -7.3430    0.0506   -0.5836 C   0  0  0  0  0  0  0  0  0  0  0  0
   -7.5101    0.5740    0.6985 C   0  0  0  0  0  0  0  0  0  0  0  0
   -4.9561   -0.0610   -0.2268 C   0  0  0  0  0  0  0  0  0  0  0  0
    0.4588   -0.2831    0.6734 C   0  0  0  0  0  0  0  0  0  0  0  0
    0.8877   -1.1924   -1.5236 C   0  0  0  0  0  0  0  0  0  0  0  0
    5.0307    1.4830   -0.4939 C   0  0  0  0  0  0  0  0  0  0  0  0
   -6.0660   -0.2669   -1.0463 C   0  0  0  0  0  0  0  0  0  0  0  0
   -6.4002    0.7797    1.5180 C   0  0  0  0  0  0  0  0  0  0  0  0
   -5.1232    0.4622    1.0554 C   0  0  0  0  0  0  0  0  0  0  0  0
   -8.5164   -0.1786   -1.4785 C   0  0  0  0  0  0  0  0  0  0  0  0
   -2.4380   -0.2473   -0.0191 C   0  0  0  0  0  0  0  0  0  0  0  0
   -8.8674    0.9220    1.2156 C   0  0  0  0  0  0  0  0  0  0  0  0
    7.2948    1.7163   -0.1482 C   0  0  0  0  0  0  0  0  0  0  0  0
    2.1749    0.0291    1.9238 H   0  0  0  0  0  0  0  0  0  0  0  0
    2.9399   -1.5953   -2.0013 H   0  0  0  0  0  0  0  0  0  0  0  0
    4.1773   -2.8680    1.1411 H   0  0  0  0  0  0  0  0  0  0  0  0
   -0.1701    0.0956    1.4664 H   0  0  0  0  0  0  0  0  0  0  0  0
    0.5366   -1.5361   -2.4933 H   0  0  0  0  0  0  0  0  0  0  0  0
   -5.9316   -0.6753   -2.0454 H   0  0  0  0  0  0  0  0  0  0  0  0
   -6.5139    1.1867    2.5194 H   0  0  0  0  0  0  0  0  0  0  0  0
   -4.3165    0.6505    1.7490 H   0  0  0  0  0  0  0  0  0  0  0  0
   -1.6402   -1.0215   -1.7699 H   0  0  0  0  0  0  0  0  0  0  0  0
   -3.6206   -0.7599   -1.6395 H   0  0  0  0  0  0  0  0  0  0  0  0
   -9.2129   -0.8921   -1.0263 H   0  0  0  0  0  0  0  0  0  0  0  0
   -9.0383    0.7628   -1.6790 H   0  0  0  0  0  0  0  0  0  0  0  0
   -8.2141   -0.5924   -2.4469 H   0  0  0  0  0  0  0  0  0  0  0  0
   -9.3333    1.6902    0.5899 H   0  0  0  0  0  0  0  0  0  0  0  0
   -9.5090    0.0353    1.2424 H   0  0  0  0  0  0  0  0  0  0  0  0
   -8.8234    1.3195    2.2357 H   0  0  0  0  0  0  0  0  0  0  0  0
    8.1702    2.3499   -0.2396 H   0  0  0  0  0  0  0  0  0  0  0  0
    3.8025    2.9423   -1.3383 H   0  0  0  0  0  0  0  0  0  0  0  0
    2.9440    1.4902   -0.9048 H   0  0  0  0  0  0  0  0  0  0  0  0
  1 11  1  0  0  0  0
  1 15  1  0  0  0  0
  2 26  2  0  0  0  0
  3 14  1  0  0  0  0
  3 26  1  0  0  0  0
  3 37  1  0  0  0  0
  4 18  1  0  0  0  0
  4 26  1  0  0  0  0
  4 38  1  0  0  0  0
  5 11  2  0  0  0  0
  5 28  1  0  0  0  0
  6 21  1  0  0  0  0
  6 28  2  0  0  0  0
  7 21  1  0  0  0  0
  7 46  1  0  0  0  0
  7 47  1  0  0  0  0
  8  9  1  0  0  0  0
  8 10  1  0  0  0  0
  8 15  2  0  0  0  0
  9 12  2  0  0  0  0
  9 13  1  0  0  0  0
 10 11  1  0  0  0  0
 10 21  2  0  0  0  0
 12 19  1  0  0  0  0
 12 29  1  0  0  0  0
 13 20  2  0  0  0  0
 13 30  1  0  0  0  0
 14 19  2  0  0  0  0
 14 20  1  0  0  0  0
 15 31  1  0  0  0  0
 16 17  2  0  0  0  0
 16 22  1  0  0  0  0
 16 25  1  0  0  0  0
 17 23  1  0  0  0  0
 17 27  1  0  0  0  0
 18 22  2  0  0  0  0
 18 24  1  0  0  0  0
 19 32  1  0  0  0  0
 20 33  1  0  0  0  0
 22 34  1  0  0  0  0
 23 24  2  0  0  0  0
 23 35  1  0  0  0  0
 24 36  1  0  0  0  0
 25 39  1  0  0  0  0
 25 40  1  0  0  0  0
 25 41  1  0  0  0  0
 27 42  1  0  0  0  0
 27 43  1  0  0  0  0
 27 44  1  0  0  0  0
 28 45  1  0  0  0  0
M  END
> <PUBCHEM_COMPOUND_CID>
49830354

> <PUBCHEM_CONFORMER_RMSD>
0.8

> <PUBCHEM_CONFORMER_DIVERSEORDER>
1
14
21
7
30
13
10
17
32
18
16
3
8
27
15
31
2
11
29
19
25
20
4
5
22
9
28
6
26
23
12
24

> <PUBCHEM_MMFF94_PARTIAL_CHARGES>
40
1 -0.08
11 0.3
12 -0.15
13 -0.15
14 0.12
15 -0.11
16 -0.14
17 -0.14
18 0.12
19 -0.15
2 -0.57
20 -0.15
21 0.41
22 -0.15
23 -0.15
24 -0.15
25 0.14
26 0.69
27 0.14
28 0.47
29 0.15
3 -0.55
30 0.15
31 0.15
32 0.15
33 0.15
34 0.15
35 0.15
36 0.15
37 0.37
38 0.37
4 -0.55
45 0.15
46 0.4
47 0.4
5 -0.57
6 -0.62
7 -0.9
8 -0.05
9 0.05

> <PUBCHEM_EFFECTIVE_ROTOR_COUNT>
5

> <PUBCHEM_PHARMACOPHORE_FEATURES>
11
1 2 acceptor
1 3 donor
1 4 donor
1 5 acceptor
1 7 cation
1 7 donor
3 5 6 28 cation
5 1 8 10 11 15 rings
6 16 17 18 22 23 24 rings
6 5 6 10 11 21 28 rings
6 9 12 13 14 19 20 rings

> <PUBCHEM_HEAVY_ATOM_COUNT>
28

> <PUBCHEM_ATOM_DEF_STEREO_COUNT>
0

> <PUBCHEM_ATOM_UDEF_STEREO_COUNT>
0

> <PUBCHEM_BOND_DEF_STEREO_COUNT>
0

> <PUBCHEM_BOND_UDEF_STEREO_COUNT>
0

> <PUBCHEM_ISOTOPIC_ATOM_COUNT>
0

> <PUBCHEM_COMPONENT_COUNT>
1

> <PUBCHEM_CACTVS_TAUTO_COUNT>
12

> <PUBCHEM_CONFORMER_ID>
02F859D200000001

> <PUBCHEM_MMFF94_ENERGY>
89.0814

> <PUBCHEM_FEATURE_SELFOVERLAP>
55.951

> <PUBCHEM_SHAPE_FINGERPRINT>
10 15 16081372985519752028
10162869 55 18335974359127709647
10299344 5 18201998824612962643
10411042 1 17900531287169768778
10906281 52 17988938768286112939
11135609 127 16773507889722531240
11315181 36 18341893005526325047
11524674 6 16370449956225057091
11646440 116 16443068291827638613
11719270 70 17346597439493907702
12089408 11 18060698382109531251
12166972 35 8502367837061384279
12236239 1 18272367594866547966
125118 31 18410857620950944537
13383665 225 17202789023789072009
13533116 47 17894910681525998642
14170010 4 17530684308035345702
14251764 18 18131348609801002075
14294032 229 17704070664306190645
14849402 71 18338801216529572657
15131766 46 18118399790215693188
15183329 4 17561368387405490433
15301273 46 16298099874106824215
15419008 47 16805316695766357453
15419008 91 16153696653098166199
15461852 350 17060335254360476879
1577012 14 18273213114264163431
15840311 113 18343301492511327236
15849732 13 16950282897399960067
16120349 18 18334570265372219580
16989713 51 16557892577078242287
17093844 174 17022619772440002375
20157964 124 18334575733604266890
20771845 171 18060145328051209942
21033648 29 17241609593074738624
21150785 3 16128658565556991701
21267235 1 14707216487457389375
21792934 111 17095242510748502309
22224240 67 17676486155206257643
22956985 138 12759080852004808432
23081809 10 18202557384788320567
23576562 1 17344901038964929877
255183 451 17913780423421741574
3092352 35 18273493481176826207
3383291 50 15357705193238067313
397830 11 17386581283000858753
4073 2 17822295742282393530
4325135 7 18342457040877364213
4340502 62 17676487250892390514
445580 37 16343712015037869825
45377200 153 12247379230317859173
5758199 1 17989488507226125903
59520757 100 16343129350899912646
59682541 35 15936411173633186812
59755656 215 15123795071731777684
68570916 9 18115031938865327535

> <PUBCHEM_SHAPE_MULTIPOLES>
549.3
28.42
1.63
1.36
33.29
0.42
0.01
8.26
-3.2
-4
0.14
1.42
-0.14
-2.52

> <PUBCHEM_SHAPE_SELFOVERLAP>
1201.453

> <PUBCHEM_SHAPE_VOLUME>
299.5

> <PUBCHEM_COORDINATE_TYPE>
2
5
10

$$$$
9950716
  -OEChem-05102415033D

 44 47  0     0  0  0  0  0  0999 V2000
   -5.7223    1.5482   -1.1163 O   0  0  0  0  0  0  0  0  0  0  0  0
    2.6680   -0.2499   -0.9967 O   0  0  0  0  0  0  0  0  0  0  0  0
    1.7058    0.7189    0.9073 N   0  0  0  0  0  0  0  0  0  0  0  0
   -7.1845   -0.2591   -0.5713 N   0  0  0  0  0  0  0  0  0  0  0  0
    3.9955    0.4312    0.8041 N   0  0  0  0  0  0  0  0  0  0  0  0
   -6.0785   -2.1120    0.5581 N   0  0  0  0  0  0  0  0  0  0  0  0
   -3.7493   -2.1076    1.0655 N   0  0  0  0  0  0  0  0  0  0  0  0
   -3.7824    0.7423   -0.3059 C   0  0  0  0  0  0  0  0  0  0  0  0
   -2.3832    0.7363    0.0032 C   0  0  0  0  0  0  0  0  0  0  0  0
   -4.7942   -0.2189   -0.0672 C   0  0  0  0  0  0  0  0  0  0  0  0
   -5.9700    0.3180   -0.5817 C   0  0  0  0  0  0  0  0  0  0  0  0
   -1.9334    1.2451    1.2232 C   0  0  0  0  0  0  0  0  0  0  0  0
   -1.4653    0.2216   -0.9146 C   0  0  0  0  0  0  0  0  0  0  0  0
   -4.3972    1.7946   -0.9442 C   0  0  0  0  0  0  0  0  0  0  0  0
    0.3437    0.7247    0.6057 C   0  0  0  0  0  0  0  0  0  0  0  0
   -4.8826   -1.4801    0.5172 C   0  0  0  0  0  0  0  0  0  0  0  0
   -0.5713    1.2394    1.5241 C   0  0  0  0  0  0  0  0  0  0  0  0
   -0.1033    0.2157   -0.6136 C   0  0  0  0  0  0  0  0  0  0  0  0
    5.3003    0.0968    0.3712 C   0  0  0  0  0  0  0  0  0  0  0  0
    2.7837    0.2465    0.1193 C   0  0  0  0  0  0  0  0  0  0  0  0
    7.8551   -0.5578   -0.4761 C   0  0  0  0  0  0  0  0  0  0  0  0
    6.3778    0.3604    1.2006 C   0  0  0  0  0  0  0  0  0  0  0  0
    5.4730   -0.4872   -0.8728 C   0  0  0  0  0  0  0  0  0  0  0  0
   -7.1401   -1.4710    0.0187 C   0  0  0  0  0  0  0  0  0  0  0  0
    7.6644    0.0308    0.7740 C   0  0  0  0  0  0  0  0  0  0  0  0
    6.7594   -0.8169   -1.2995 C   0  0  0  0  0  0  0  0  0  0  0  0
    9.2307   -0.9102   -0.9325 C   0  0  0  0  0  0  0  0  0  0  0  0
   -2.6332    1.6490    1.9513 H   0  0  0  0  0  0  0  0  0  0  0  0
   -1.7981   -0.1799   -1.8692 H   0  0  0  0  0  0  0  0  0  0  0  0
   -4.0527    2.7462   -1.3243 H   0  0  0  0  0  0  0  0  0  0  0  0
   -0.2371    1.6388    2.4783 H   0  0  0  0  0  0  0  0  0  0  0  0
    0.5401   -0.1999   -1.3759 H   0  0  0  0  0  0  0  0  0  0  0  0
    1.9540    1.1062    1.8143 H   0  0  0  0  0  0  0  0  0  0  0  0
    3.9373    0.8568    1.7259 H   0  0  0  0  0  0  0  0  0  0  0  0
    6.2402    0.8189    2.1759 H   0  0  0  0  0  0  0  0  0  0  0  0
    4.6805   -0.7192   -1.5683 H   0  0  0  0  0  0  0  0  0  0  0  0
   -8.0832   -2.0048    0.0678 H   0  0  0  0  0  0  0  0  0  0  0  0
    8.5103    0.2393    1.4239 H   0  0  0  0  0  0  0  0  0  0  0  0
    6.8969   -1.2735   -2.2763 H   0  0  0  0  0  0  0  0  0  0  0  0
   -3.8536   -3.0232    1.4818 H   0  0  0  0  0  0  0  0  0  0  0  0
   -2.8438   -1.6615    1.0510 H   0  0  0  0  0  0  0  0  0  0  0  0
    9.6728   -0.0697   -1.4766 H   0  0  0  0  0  0  0  0  0  0  0  0
    9.8775   -1.1581   -0.0839 H   0  0  0  0  0  0  0  0  0  0  0  0
    9.2162   -1.7859   -1.5903 H   0  0  0  0  0  0  0  0  0  0  0  0
  1 11  1  0  0  0  0
  1 14  1  0  0  0  0
  2 20  2  0  0  0  0
  3 15  1  0  0  0  0
  3 20  1  0  0  0  0
  3 33  1  0  0  0  0
  4 11  2  0  0  0  0
  4 24  1  0  0  0  0
  5 19  1  0  0  0  0
  5 20  1  0  0  0  0
  5 34  1  0  0  0  0
  6 16  1  0  0  0  0
  6 24  2  0  0  0  0
  7 16  1  0  0  0  0
  7 40  1  0  0  0  0
  7 41  1  0  0  0  0
  8  9  1  0  0  0  0
  8 10  1  0  0  0  0
  8 14  2  0  0  0  0
  9 12  2  0  0  0  0
  9 13  1  0  0  0  0
 10 11  1  0  0  0  0
 10 16  2  0  0  0  0
 12 17  1  0  0  0  0
 12 28  1  0  0  0  0
 13 18  2  0  0  0  0
 13 29  1  0  0  0  0
 14 30  1  0  0  0  0
 15 17  2  0  0  0  0
 15 18  1  0  0  0  0
 17 31  1  0  0  0  0
 18 32  1  0  0  0  0
 19 22  2  0  0  0  0
 19 23  1  0  0  0  0
 21 25  2  0  0  0  0
 21 26  1  0  0  0  0
 21 27  1  0  0  0  0
 22 25  1  0  0  0  0
 22 35  1  0  0  0  0
 23 26  2  0  0  0  0
 23 36  1  0  0  0  0
 24 37  1  0  0  0  0
 25 38  1  0  0  0  0
 26 39  1  0  0  0  0
 27 42  1  0  0  0  0
 27 43  1  0  0  0  0
 27 44  1  0  0  0  0
M  END
> <PUBCHEM_COMPOUND_CID>
9950716

> <PUBCHEM_CONFORMER_RMSD>
0.8

> <PUBCHEM_CONFORMER_DIVERSEORDER>
1
5
4
8
2
6
3
7

> <PUBCHEM_MMFF94_PARTIAL_CHARGES>
40
1 -0.28
11 0.4
12 -0.15
13 -0.15
14 -0.01
15 0.12
16 0.41
17 -0.15
18 -0.15
19 0.12
2 -0.57
20 0.69
21 -0.14
22 -0.15
23 -0.15
24 0.47
25 -0.15
26 -0.15
27 0.14
28 0.15
29 0.15
3 -0.55
30 0.15
31 0.15
32 0.15
33 0.37
34 0.37
35 0.15
36 0.15
37 0.15
38 0.15
39 0.15
4 -0.57
40 0.4
41 0.4
5 -0.55
6 -0.62
7 -0.9
8 -0.05
9 0.05

> <PUBCHEM_EFFECTIVE_ROTOR_COUNT>
5

> <PUBCHEM_PHARMACOPHORE_FEATURES>
10
1 2 acceptor
1 3 donor
1 5 donor
1 7 cation
1 7 donor
3 4 6 24 cation
5 1 8 10 11 14 rings
6 19 21 22 23 25 26 rings
6 4 6 10 11 16 24 rings
6 9 12 13 15 17 18 rings

> <PUBCHEM_HEAVY_ATOM_COUNT>
27

> <PUBCHEM_ATOM_DEF_STEREO_COUNT>
0

> <PUBCHEM_ATOM_UDEF_STEREO_COUNT>
0

> <PUBCHEM_BOND_DEF_STEREO_COUNT>
0

> <PUBCHEM_BOND_UDEF_STEREO_COUNT>
0

> <PUBCHEM_ISOTOPIC_ATOM_COUNT>
0

> <PUBCHEM_COMPONENT_COUNT>
1

> <PUBCHEM_CACTVS_TAUTO_COUNT>
12

> <PUBCHEM_CONFORMER_ID>
0097D5FC00000001

> <PUBCHEM_MMFF94_ENERGY>
81.9264

> <PUBCHEM_FEATURE_SELFOVERLAP>
50.918

> <PUBCHEM_SHAPE_FINGERPRINT>
10 15 18201430416040951504
10299344 5 17385441016607882010
10674148 151 18411420610144238481
11315181 36 16298391262390546725
11524674 6 17988922297255676311
12082328 90 18409164372996404916
12166972 35 18261395572290913284
12236239 1 16732695048353169945
12741549 16 17704072924466668273
13288520 33 18261108595908767997
13668630 136 18412827971826189596
13685833 64 17632858625143564912
13885169 127 18410011013734061177
14028597 1 14333139541865034214
14068700 675 17675926495419565596
14251764 18 16298105372387753620
14344974 204 17914050056651767727
14729087 3 8502659203077998479
14849402 71 13973387115452881498
14856354 85 17894633673526161655
150020 25 18412824681796825348
15152005 1 17834398196215590895
15183329 4 15864067680849368336
15352257 5 18412546500865572990
15419008 47 18343575235888042248
15419008 91 18267282336113640760
15461852 350 18040721359575964244
15510794 2 18411698782496891138
15716309 27 16128655249568030008
1577012 14 16443342040232198740
15849732 13 18411698790464320988
18643901 69 18335421292648338615
18681886 176 18114457950276217393
2026 5 18342738516086963223
21150785 3 17748829618420273900
21267235 1 17489590052579036968
21360443 120 16732697238364927683
21623969 137 17632582651445168766
21792961 116 18059572447822130605
22288116 15 16660650695499112163
23081809 10 16660639631573744888
23522609 53 16951423022228120492
23559900 14 18190174771105158665
23576562 1 17024047023999951830
246663 6 17703793617819959662
249057 3 18040714784055153533
2838139 119 15285360613083788924
3004659 81 18187080680564078376
3178227 256 17203611506099884170
335352 9 14418140621086168510
3383291 50 17917992793331123254
397830 11 18198051676616721248
4325135 7 17095521794732787126
4339292 15 18339915018009148759
445580 160 18412546534892865511
44880568 143 18334859394440484236
504843 32 13984957241509209600
5265222 85 18261958569066487723
57527295 17 17773015490456909213
58083652 198 15410881960175429609
58902169 19 16805326617357127254
5937810 71 13262938699990452407
636775 8 18342747329549167478
9962374 69 17131817799332303660
999808 66 17989490731607507735

> <PUBCHEM_SHAPE_MULTIPOLES>
519
26.65
1.54
1.25
32.7
0.32
-0.04
10.37
3.75
-2.49
-0.28
0.13
-0.11
2.47

> <PUBCHEM_SHAPE_SELFOVERLAP>
1153.602

> <PUBCHEM_SHAPE_VOLUME>
275.3

> <PUBCHEM_COORDINATE_TYPE>
2
5
10

$$$$
10067064
  -OEChem-05102415033D

 43 46  0     0  0  0  0  0  0999 V2000
   -5.6898   -1.6854   -0.7905 O   0  0  0  0  0  0  0  0  0  0  0  0
    2.6140    0.1752   -1.2216 O   0  0  0  0  0  0  0  0  0  0  0  0
    1.7321   -0.5533    0.8232 N   0  0  0  0  0  0  0  0  0  0  0  0
   -4.3331   -1.9532   -0.6525 N   0  0  0  0  0  0  0  0  0  0  0  0
    4.0111   -0.2458    0.6059 N   0  0  0  0  0  0  0  0  0  0  0  0
   -7.1550    0.1713   -0.4255 N   0  0  0  0  0  0  0  0  0  0  0  0
   -6.0058    2.1507    0.4146 N   0  0  0  0  0  0  0  0  0  0  0  0
   -3.6553    2.1999    0.8205 N   0  0  0  0  0  0  0  0  0  0  0  0
   -2.3796   -0.7514    0.0686 C   0  0  0  0  0  0  0  0  0  0  0  0
   -3.7904   -0.8204   -0.1906 C   0  0  0  0  0  0  0  0  0  0  0  0
   -4.7518    0.1915   -0.0187 C   0  0  0  0  0  0  0  0  0  0  0  0
    0.3613   -0.6192    0.5713 C   0  0  0  0  0  0  0  0  0  0  0  0
   -1.8844   -1.0909    1.3276 C   0  0  0  0  0  0  0  0  0  0  0  0
   -1.5045   -0.3459   -0.9391 C   0  0  0  0  0  0  0  0  0  0  0  0
   -0.5140   -1.0247    1.5789 C   0  0  0  0  0  0  0  0  0  0  0  0
   -0.1339   -0.2798   -0.6878 C   0  0  0  0  0  0  0  0  0  0  0  0
   -5.9395   -0.4013   -0.4109 C   0  0  0  0  0  0  0  0  0  0  0  0
   -4.8106    1.5143    0.4049 C   0  0  0  0  0  0  0  0  0  0  0  0
    5.2946    0.0499    0.0892 C   0  0  0  0  0  0  0  0  0  0  0  0
    7.6689    0.2035    0.3968 C   0  0  0  0  0  0  0  0  0  0  0  0
    6.4040   -0.0884    0.9073 C   0  0  0  0  0  0  0  0  0  0  0  0
    2.7747   -0.1703   -0.0555 C   0  0  0  0  0  0  0  0  0  0  0  0
    5.4148    0.4720   -1.2246 C   0  0  0  0  0  0  0  0  0  0  0  0
    7.8067    0.6295   -0.9243 C   0  0  0  0  0  0  0  0  0  0  0  0
    6.6797    0.7637   -1.7349 C   0  0  0  0  0  0  0  0  0  0  0  0
    8.8743    0.0595    1.2635 C   0  0  0  0  0  0  0  0  0  0  0  0
   -7.0885    1.4490    0.0044 C   0  0  0  0  0  0  0  0  0  0  0  0
   -2.5532   -1.4085    2.1241 H   0  0  0  0  0  0  0  0  0  0  0  0
   -1.8759   -0.0777   -1.9256 H   0  0  0  0  0  0  0  0  0  0  0  0
   -0.1418   -1.2919    2.5648 H   0  0  0  0  0  0  0  0  0  0  0  0
    0.4766    0.0431   -1.5188 H   0  0  0  0  0  0  0  0  0  0  0  0
    2.0166   -0.8158    1.7637 H   0  0  0  0  0  0  0  0  0  0  0  0
    6.2951   -0.4223    1.9361 H   0  0  0  0  0  0  0  0  0  0  0  0
    3.9906   -0.5499    1.5760 H   0  0  0  0  0  0  0  0  0  0  0  0
    4.5959    0.6014   -1.9159 H   0  0  0  0  0  0  0  0  0  0  0  0
    8.7869    0.8580   -1.3343 H   0  0  0  0  0  0  0  0  0  0  0  0
    6.7886    1.0951   -2.7637 H   0  0  0  0  0  0  0  0  0  0  0  0
    9.2608   -0.9627    1.2023 H   0  0  0  0  0  0  0  0  0  0  0  0
    9.6664    0.7522    0.9592 H   0  0  0  0  0  0  0  0  0  0  0  0
    8.6370    0.2842    2.3089 H   0  0  0  0  0  0  0  0  0  0  0  0
   -8.0299    1.9878    0.0243 H   0  0  0  0  0  0  0  0  0  0  0  0
   -3.7421    3.1618    1.1201 H   0  0  0  0  0  0  0  0  0  0  0  0
   -2.7506    1.7523    0.8232 H   0  0  0  0  0  0  0  0  0  0  0  0
  1  4  1  0  0  0  0
  1 17  1  0  0  0  0
  2 22  2  0  0  0  0
  3 12  1  0  0  0  0
  3 22  1  0  0  0  0
  3 32  1  0  0  0  0
  4 10  2  0  0  0  0
  5 19  1  0  0  0  0
  5 22  1  0  0  0  0
  5 34  1  0  0  0  0
  6 17  2  0  0  0  0
  6 27  1  0  0  0  0
  7 18  1  0  0  0  0
  7 27  2  0  0  0  0
  8 18  1  0  0  0  0
  8 42  1  0  0  0  0
  8 43  1  0  0  0  0
  9 10  1  0  0  0  0
  9 13  2  0  0  0  0
  9 14  1  0  0  0  0
 10 11  1  0  0  0  0
 11 17  1  0  0  0  0
 11 18  2  0  0  0  0
 12 15  2  0  0  0  0
 12 16  1  0  0  0  0
 13 15  1  0  0  0  0
 13 28  1  0  0  0  0
 14 16  2  0  0  0  0
 14 29  1  0  0  0  0
 15 30  1  0  0  0  0
 16 31  1  0  0  0  0
 19 21  1  0  0  0  0
 19 23  2  0  0  0  0
 20 21  2  0  0  0  0
 20 24  1  0  0  0  0
 20 26  1  0  0  0  0
 21 33  1  0  0  0  0
 23 25  1  0  0  0  0
 23 35  1  0  0  0  0
 24 25  2  0  0  0  0
 24 36  1  0  0  0  0
 25 37  1  0  0  0  0
 26 38  1  0  0  0  0
 26 39  1  0  0  0  0
 26 40  1  0  0  0  0
 27 41  1  0  0  0  0
M  END
> <PUBCHEM_COMPOUND_CID>
10067064

> <PUBCHEM_CONFORMER_RMSD>
0.8

> <PUBCHEM_CONFORMER_DIVERSEORDER>
1
9
10
5
15
4
12
13
6
7
16
11
14
8
2
3

> <PUBCHEM_MMFF94_PARTIAL_CHARGES>
39
1 -0.02
10 0.23
12 0.12
13 -0.15
14 -0.15
15 -0.15
16 -0.15
17 0.4
18 0.41
19 0.12
2 -0.57
20 -0.14
21 -0.15
22 0.69
23 -0.15
24 -0.15
25 -0.15
26 0.14
27 0.47
28 0.15
29 0.15
3 -0.55
30 0.15
31 0.15
32 0.37
33 0.15
34 0.37
35 0.15
36 0.15
37 0.15
4 -0.41
41 0.15
42 0.4
43 0.4
5 -0.55
6 -0.57
7 -0.62
8 -0.9
9 0.05

> <PUBCHEM_EFFECTIVE_ROTOR_COUNT>
5

> <PUBCHEM_PHARMACOPHORE_FEATURES>
11
1 2 acceptor
1 3 donor
1 4 acceptor
1 5 donor
1 8 cation
1 8 donor
3 6 7 27 cation
5 1 4 10 11 17 rings
6 19 20 21 23 24 25 rings
6 6 7 11 17 18 27 rings
6 9 12 13 14 15 16 rings

> <PUBCHEM_HEAVY_ATOM_COUNT>
27

> <PUBCHEM_ATOM_DEF_STEREO_COUNT>
0

> <PUBCHEM_ATOM_UDEF_STEREO_COUNT>
0

> <PUBCHEM_BOND_DEF_STEREO_COUNT>
0

> <PUBCHEM_BOND_UDEF_STEREO_COUNT>
0

> <PUBCHEM_ISOTOPIC_ATOM_COUNT>
0

> <PUBCHEM_COMPONENT_COUNT>
1

> <PUBCHEM_CACTVS_TAUTO_COUNT>
23

> <PUBCHEM_CONFORMER_ID>
00999C7800000001

> <PUBCHEM_MMFF94_ENERGY>
82.2653

> <PUBCHEM_FEATURE_SELFOVERLAP>
55.988

> <PUBCHEM_SHAPE_FINGERPRINT>
10 15 13840270312272050774
10076449 9 17489870458393675651
10087517 78 18334858286143398605
10299344 5 18113053844442745534
10391435 84 15338825500483887166
10411042 1 17982445204002434263
106641 1 16660371385639358673
10730089 173 18341894078592961441
10906281 52 17822306681764302534
11315181 36 18113900490013465743
11456790 92 17530681001174973480
11719270 70 17417811708820219774
11991303 11 16486967453308122964
12082328 90 18341893004387186887
12091667 2 18412826910721717971
12166972 35 11167938065782426530
12236239 1 18187362108818323155
13288520 33 9727630605900936835
13533116 47 17967805021567079258
13668630 136 15051730898067709525
13914758 101 18413390921647729290
14251764 18 18040154032560381158
14251764 46 18113897170304374442
14849402 71 17749962170783923388
14856354 85 18340488962873074079
15183329 4 18343306959371309152
15198563 99 16343433803846778840
15419008 47 17275099527134338184
15419008 91 17417513788091570224
15461852 350 18341617052616924046
1577012 14 18259701185774017475
15849732 13 17132113559006471428
195137 175 18040723588912222724
20281389 69 16950279620429116756
21095086 128 9727641609881663768
21130935 74 17531249508963353714
21150785 3 16272206384195014888
21756936 100 18186804669603335635
21792961 116 17131838646354680023
22224240 67 15936412243069150059
23081809 10 18187361043434487634
23198884 109 18408606967471163995
23559900 14 14979662338926092458
23576562 1 18123193661128600068
249057 3 18131630123405973261
3178227 256 15140684674457665900
394071 54 16877664556990214054
4073 2 18260272953443776818
4093350 32 18339358570705006154
4339292 15 17488451040353870495
437795 51 13695862602785594096
44280117 145 17059766841118906525
44555599 121 18113907078377792988
445580 204 18335704918665244833
445580 37 18343872099547191105
5104073 3 16660932213662930872
5385378 56 17676483900754661474
54039377 194 11671483626985759069
5758199 1 17967250897133030578
5969126 39 13973688299849643667
59755656 520 17603583058106519331
6201320 215 18198898120108272400

> <PUBCHEM_SHAPE_MULTIPOLES>
514.02
26.17
1.5
1.29
27.96
0.29
-0.04
7.83
0.28
-2.58
0.23
0.86
0.02
-2.42

> <PUBCHEM_SHAPE_SELFOVERLAP>
1139.789

> <PUBCHEM_SHAPE_VOLUME>
271.6

> <PUBCHEM_COORDINATE_TYPE>
2
5
10

$$$$
10409523
  -OEChem-05102415033D

 43 46  0     0  0  0  0  0  0999 V2000
    8.0006    0.9255    1.8397 F   0  0  0  0  0  0  0  0  0  0  0  0
    9.1238    0.3783    0.0669 F   0  0  0  0  0  0  0  0  0  0  0  0
    8.1697   -1.1651    1.2654 F   0  0  0  0  0  0  0  0  0  0  0  0
   -6.6569   -1.7098   -0.5879 O   0  0  0  0  0  0  0  0  0  0  0  0
    1.6217    0.1118   -1.4574 O   0  0  0  0  0  0  0  0  0  0  0  0
    0.8287   -0.5269    0.6527 N   0  0  0  0  0  0  0  0  0  0  0  0
   -5.2958   -1.9751   -0.4976 N   0  0  0  0  0  0  0  0  0  0  0  0
    3.0963   -0.2339    0.3245 N   0  0  0  0  0  0  0  0  0  0  0  0
   -8.1033    0.1648   -0.2403 N   0  0  0  0  0  0  0  0  0  0  0  0
   -6.9169    2.1754    0.4625 N   0  0  0  0  0  0  0  0  0  0  0  0
   -4.5509    2.2358    0.7634 N   0  0  0  0  0  0  0  0  0  0  0  0
   -3.3117   -0.7487    0.0853 C   0  0  0  0  0  0  0  0  0  0  0  0
   -4.7323   -0.8250   -0.1091 C   0  0  0  0  0  0  0  0  0  0  0  0
   -5.6846    0.1960    0.0603 C   0  0  0  0  0  0  0  0  0  0  0  0
   -0.5516   -0.6006    0.4632 C   0  0  0  0  0  0  0  0  0  0  0  0
   -2.7626   -1.0349    1.3351 C   0  0  0  0  0  0  0  0  0  0  0  0
   -2.4808   -0.3885   -0.9757 C   0  0  0  0  0  0  0  0  0  0  0  0
   -1.3825   -0.9607    1.5241 C   0  0  0  0  0  0  0  0  0  0  0  0
   -1.1007   -0.3145   -0.7866 C   0  0  0  0  0  0  0  0  0  0  0  0
   -6.8888   -0.4098   -0.2537 C   0  0  0  0  0  0  0  0  0  0  0  0
   -5.7237    1.5360    0.4284 C   0  0  0  0  0  0  0  0  0  0  0  0
    4.3565    0.0367   -0.2591 C   0  0  0  0  0  0  0  0  0  0  0  0
    6.7416    0.1983   -0.0596 C   0  0  0  0  0  0  0  0  0  0  0  0
    5.4995   -0.0689    0.5160 C   0  0  0  0  0  0  0  0  0  0  0  0
    1.8326   -0.1840   -0.2857 C   0  0  0  0  0  0  0  0  0  0  0  0
    4.4206    0.4022   -1.5936 C   0  0  0  0  0  0  0  0  0  0  0  0
    6.8232    0.5674   -1.4023 C   0  0  0  0  0  0  0  0  0  0  0  0
    5.6627    0.6694   -2.1693 C   0  0  0  0  0  0  0  0  0  0  0  0
    7.9827    0.0890    0.7600 C   0  0  0  0  0  0  0  0  0  0  0  0
   -8.0170    1.4598    0.1306 C   0  0  0  0  0  0  0  0  0  0  0  0
   -3.3964   -1.3166    2.1726 H   0  0  0  0  0  0  0  0  0  0  0  0
   -2.8943   -0.1619   -1.9557 H   0  0  0  0  0  0  0  0  0  0  0  0
   -0.9683   -1.1861    2.5036 H   0  0  0  0  0  0  0  0  0  0  0  0
   -0.5265   -0.0287   -1.6562 H   0  0  0  0  0  0  0  0  0  0  0  0
    1.1533   -0.7494    1.5905 H   0  0  0  0  0  0  0  0  0  0  0  0
    5.4370   -0.3566    1.5626 H   0  0  0  0  0  0  0  0  0  0  0  0
    3.1176   -0.4964    1.3067 H   0  0  0  0  0  0  0  0  0  0  0  0
    3.5728    0.5039   -2.2541 H   0  0  0  0  0  0  0  0  0  0  0  0
    7.7814    0.7794   -1.8685 H   0  0  0  0  0  0  0  0  0  0  0  0
    5.7276    0.9569   -3.2149 H   0  0  0  0  0  0  0  0  0  0  0  0
   -8.9561    2.0015    0.1682 H   0  0  0  0  0  0  0  0  0  0  0  0
   -4.6238    3.2100    1.0246 H   0  0  0  0  0  0  0  0  0  0  0  0
   -3.6473    1.7863    0.7461 H   0  0  0  0  0  0  0  0  0  0  0  0
  1 29  1  0  0  0  0
  2 29  1  0  0  0  0
  3 29  1  0  0  0  0
  4  7  1  0  0  0  0
  4 20  1  0  0  0  0
  5 25  2  0  0  0  0
  6 15  1  0  0  0  0
  6 25  1  0  0  0  0
  6 35  1  0  0  0  0
  7 13  2  0  0  0  0
  8 22  1  0  0  0  0
  8 25  1  0  0  0  0
  8 37  1  0  0  0  0
  9 20  2  0  0  0  0
  9 30  1  0  0  0  0
 10 21  1  0  0  0  0
 10 30  2  0  0  0  0
 11 21  1  0  0  0  0
 11 42  1  0  0  0  0
 11 43  1  0  0  0  0
 12 13  1  0  0  0  0
 12 16  2  0  0  0  0
 12 17  1  0  0  0  0
 13 14  1  0  0  0  0
 14 20  1  0  0  0  0
 14 21  2  0  0  0  0
 15 18  2  0  0  0  0
 15 19  1  0  0  0  0
 16 18  1  0  0  0  0
 16 31  1  0  0  0  0
 17 19  2  0  0  0  0
 17 32  1  0  0  0  0
 18 33  1  0  0  0  0
 19 34  1  0  0  0  0
 22 24  1  0  0  0  0
 22 26  2  0  0  0  0
 23 24  2  0  0  0  0
 23 27  1  0  0  0  0
 23 29  1  0  0  0  0
 24 36  1  0  0  0  0
 26 28  1  0  0  0  0
 26 38  1  0  0  0  0
 27 28  2  0  0  0  0
 27 39  1  0  0  0  0
 28 40  1  0  0  0  0
 30 41  1  0  0  0  0
M  END
> <PUBCHEM_COMPOUND_CID>
10409523

> <PUBCHEM_CONFORMER_RMSD>
0.8

> <PUBCHEM_CONFORMER_DIVERSEORDER>
1
15
14
16
21
7
20
19
11
6
4
18
22
17
23
5
3
12
13
8
10
2
9

> <PUBCHEM_MMFF94_PARTIAL_CHARGES>
42
1 -0.34
10 -0.62
11 -0.9
12 0.05
13 0.23
15 0.12
16 -0.15
17 -0.15
18 -0.15
19 -0.15
2 -0.34
20 0.4
21 0.41
22 0.12
23 -0.14
24 -0.15
25 0.69
26 -0.15
27 -0.15
28 -0.15
29 1.16
3 -0.34
30 0.47
31 0.15
32 0.15
33 0.15
34 0.15
35 0.37
36 0.15
37 0.37
38 0.15
39 0.15
4 -0.02
40 0.15
41 0.15
42 0.4
43 0.4
5 -0.57
6 -0.55
7 -0.41
8 -0.55
9 -0.57

> <PUBCHEM_EFFECTIVE_ROTOR_COUNT>
6

> <PUBCHEM_PHARMACOPHORE_FEATURES>
11
1 11 cation
1 11 donor
1 5 acceptor
1 6 donor
1 7 acceptor
1 8 donor
3 9 10 30 cation
5 4 7 13 14 20 rings
6 12 15 16 17 18 19 rings
6 22 23 24 26 27 28 rings
6 9 10 14 20 21 30 rings

> <PUBCHEM_HEAVY_ATOM_COUNT>
30

> <PUBCHEM_ATOM_DEF_STEREO_COUNT>
0

> <PUBCHEM_ATOM_UDEF_STEREO_COUNT>
0

> <PUBCHEM_BOND_DEF_STEREO_COUNT>
0

> <PUBCHEM_BOND_UDEF_STEREO_COUNT>
0

> <PUBCHEM_ISOTOPIC_ATOM_COUNT>
0

> <PUBCHEM_COMPONENT_COUNT>
1

> <PUBCHEM_CACTVS_TAUTO_COUNT>
23

> <PUBCHEM_CONFORMER_ID>
009ED63300000001

> <PUBCHEM_MMFF94_ENERGY>
82.6476

> <PUBCHEM_FEATURE_SELFOVERLAP>
55.988

> <PUBCHEM_SHAPE_FINGERPRINT>
10299344 5 18040152924580196542
10391435 84 15625933270504507246
11135926 11 16877935045129865443
11315181 36 18113621214344847295
11456790 92 17530967981856671632
12082328 90 18342174475480315423
12089408 11 18113900480779992166
12838862 33 15841260481248155006
13885169 127 18342739606770415243
13914758 101 18411421695968941602
14118638 360 15123521285358690266
14251764 18 18040998445038088886
14251764 46 18040434400015836506
14344974 52 17917986201500042997
14444916 359 14634868630617657528
150020 25 17346883329633356600
15131766 46 17698431463195749600
15183329 4 18412834581200849813
15198563 99 16486706761705018625
15328684 2 18189043210077993136
15352257 5 11169908386118556272
15419008 47 17346876736842994024
15419008 91 17632565063849724864
15461852 350 18271811254371864678
15510794 2 17346883355324072279
1577012 14 17168433765551489846
15849732 13 17203610397428895765
17093844 174 18130788975778870899
20554085 129 17988916769959865722
21095086 128 9655581812261710328
21130935 74 17313673762649360122
21150785 3 12391511984144549600
21792961 116 16988568974262381638
23559900 14 17024032751074534396
2835820 82 17314498237815878602
4073 2 18187654608807998955
4093350 32 18339078195023664874
4339292 15 17631724002728604207
437795 160 18339916129672390387
44280117 145 17059769027557927589
44555599 121 18040444312326122380
44802255 64 17632855301334601501
44880568 143 17560531624349543776
5381727 24 17458347455851813515
5758199 1 18040154015496758131
5969126 39 14117523104287167963
6201320 215 18269550542417378385
67123 10 8502652615378907810

> <PUBCHEM_SHAPE_MULTIPOLES>
553.94
29.93
1.49
1.39
23.12
0.06
0.13
5.2
5.46
-0.89
0.13
0.01
0.29
-3.27

> <PUBCHEM_SHAPE_SELFOVERLAP>
1231.961

> <PUBCHEM_SHAPE_VOLUME>
294.4

> <PUBCHEM_COORDINATE_TYPE>
2
5
10

$$$$
16043242
  -OEChem-05102415033D

 43 46  0     0  0  0  0  0  0999 V2000
   -6.0684    0.5055    2.0534 S   0  0  0  0  0  0  0  0  0  0  0  0
    6.0343    2.1808   -1.2186 F   0  0  0  0  0  0  0  0  0  0  0  0
    2.4730   -0.8794    0.6350 O   0  0  0  0  0  0  0  0  0  0  0  0
    1.5264    1.1053   -0.1740 N   0  0  0  0  0  0  0  0  0  0  0  0
   -4.4366    0.8211    1.9996 N   0  0  0  0  0  0  0  0  0  0  0  0
    3.8111    0.7918   -0.3061 N   0  0  0  0  0  0  0  0  0  0  0  0
   -7.2986   -0.6683   -0.0315 N   0  0  0  0  0  0  0  0  0  0  0  0
   -5.9277   -1.2322   -1.9577 N   0  0  0  0  0  0  0  0  0  0  0  0
   -3.5951   -0.7907   -2.0559 N   0  0  0  0  0  0  0  0  0  0  0  0
   -2.5588    0.5812    0.5679 C   0  0  0  0  0  0  0  0  0  0  0  0
   -3.9605    0.4017    0.8223 C   0  0  0  0  0  0  0  0  0  0  0  0
   -4.9039   -0.1921   -0.0801 C   0  0  0  0  0  0  0  0  0  0  0  0
    0.1645    0.9302    0.0734 C   0  0  0  0  0  0  0  0  0  0  0  0
   -2.1040    1.7545   -0.0340 C   0  0  0  0  0  0  0  0  0  0  0  0
   -1.6519   -0.4176    0.9226 C   0  0  0  0  0  0  0  0  0  0  0  0
   -0.7423    1.9289   -0.2813 C   0  0  0  0  0  0  0  0  0  0  0  0
   -0.2902   -0.2430    0.6753 C   0  0  0  0  0  0  0  0  0  0  0  0
   -6.1612   -0.1951    0.5060 C   0  0  0  0  0  0  0  0  0  0  0  0
   -4.8185   -0.7390   -1.3618 C   0  0  0  0  0  0  0  0  0  0  0  0
    5.1105    0.2405   -0.2076 C   0  0  0  0  0  0  0  0  0  0  0  0
    6.5515   -1.5594    0.4554 C   0  0  0  0  0  0  0  0  0  0  0  0
    5.2712   -1.0146    0.3561 C   0  0  0  0  0  0  0  0  0  0  0  0
    2.5966    0.2213    0.1074 C   0  0  0  0  0  0  0  0  0  0  0  0
    6.1940    0.9661   -0.6745 C   0  0  0  0  0  0  0  0  0  0  0  0
    7.6530   -0.8415   -0.0102 C   0  0  0  0  0  0  0  0  0  0  0  0
    7.4742    0.4213   -0.5751 C   0  0  0  0  0  0  0  0  0  0  0  0
    6.7423   -2.9101    1.0588 C   0  0  0  0  0  0  0  0  0  0  0  0
   -7.0849   -1.1671   -1.2646 C   0  0  0  0  0  0  0  0  0  0  0  0
   -2.7979    2.5424   -0.3172 H   0  0  0  0  0  0  0  0  0  0  0  0
   -1.9915   -1.3381    1.3919 H   0  0  0  0  0  0  0  0  0  0  0  0
   -0.4020    2.8481   -0.7514 H   0  0  0  0  0  0  0  0  0  0  0  0
    0.3465   -1.0616    0.9787 H   0  0  0  0  0  0  0  0  0  0  0  0
    1.7808    1.9857   -0.6150 H   0  0  0  0  0  0  0  0  0  0  0  0
    4.4663   -1.6248    0.7374 H   0  0  0  0  0  0  0  0  0  0  0  0
    3.7626    1.7153   -0.7293 H   0  0  0  0  0  0  0  0  0  0  0  0
    8.6565   -1.2525    0.0617 H   0  0  0  0  0  0  0  0  0  0  0  0
    8.3317    0.9808   -0.9372 H   0  0  0  0  0  0  0  0  0  0  0  0
    7.7537   -3.2929    0.8857 H   0  0  0  0  0  0  0  0  0  0  0  0
    6.5759   -2.8664    2.1399 H   0  0  0  0  0  0  0  0  0  0  0  0
    6.0434   -3.6296    0.6191 H   0  0  0  0  0  0  0  0  0  0  0  0
   -7.9570   -1.5703   -1.7679 H   0  0  0  0  0  0  0  0  0  0  0  0
   -3.5882   -1.1969   -2.9823 H   0  0  0  0  0  0  0  0  0  0  0  0
   -2.7355   -0.4394   -1.6662 H   0  0  0  0  0  0  0  0  0  0  0  0
  1  5  1  0  0  0  0
  1 18  1  0  0  0  0
  2 24  1  0  0  0  0
  3 23  2  0  0  0  0
  4 13  1  0  0  0  0
  4 23  1  0  0  0  0
  4 33  1  0  0  0  0
  5 11  2  0  0  0  0
  6 20  1  0  0  0  0
  6 23  1  0  0  0  0
  6 35  1  0  0  0  0
  7 18  2  0  0  0  0
  7 28  1  0  0  0  0
  8 19  1  0  0  0  0
  8 28  2  0  0  0  0
  9 19  1  0  0  0  0
  9 42  1  0  0  0  0
  9 43  1  0  0  0  0
 10 11  1  0  0  0  0
 10 14  2  0  0  0  0
 10 15  1  0  0  0  0
 11 12  1  0  0  0  0
 12 18  1  0  0  0  0
 12 19  2  0  0  0  0
 13 16  2  0  0  0  0
 13 17  1  0  0  0  0
 14 16  1  0  0  0  0
 14 29  1  0  0  0  0
 15 17  2  0  0  0  0
 15 30  1  0  0  0  0
 16 31  1  0  0  0  0
 17 32  1  0  0  0  0
 20 22  1  0  0  0  0
 20 24  2  0  0  0  0
 21 22  2  0  0  0  0
 21 25  1  0  0  0  0
 21 27  1  0  0  0  0
 22 34  1  0  0  0  0
 24 26  1  0  0  0  0
 25 26  2  0  0  0  0
 25 36  1  0  0  0  0
 26 37  1  0  0  0  0
 27 38  1  0  0  0  0
 27 39  1  0  0  0  0
 27 40  1  0  0  0  0
 28 41  1  0  0  0  0
M  END
> <PUBCHEM_COMPOUND_CID>
16043242

> <PUBCHEM_CONFORMER_RMSD>
0.8

> <PUBCHEM_CONFORMER_DIVERSEORDER>
1
9
10
16
8
13
5
15
6
14
7
11
12
4
3
2

> <PUBCHEM_MMFF94_PARTIAL_CHARGES>
39
1 0.18
10 0.05
11 0.23
13 0.12
14 -0.15
15 -0.15
16 -0.15
17 -0.15
18 0.3
19 0.41
2 -0.19
20 0.12
21 -0.14
22 -0.15
23 0.69
24 0.19
25 -0.15
26 -0.15
27 0.14
28 0.47
29 0.15
3 -0.57
30 0.15
31 0.15
32 0.15
33 0.37
34 0.15
35 0.37
36 0.15
37 0.15
4 -0.55
41 0.15
42 0.4
43 0.4
5 -0.51
6 -0.55
7 -0.57
8 -0.62
9 -0.9

> <PUBCHEM_EFFECTIVE_ROTOR_COUNT>
5

> <PUBCHEM_PHARMACOPHORE_FEATURES>
12
1 3 acceptor
1 4 donor
1 5 acceptor
1 6 donor
1 7 acceptor
1 9 cation
1 9 donor
3 7 8 28 cation
5 1 5 11 12 18 rings
6 10 13 14 15 16 17 rings
6 20 21 22 24 25 26 rings
6 7 8 12 18 19 28 rings

> <PUBCHEM_HEAVY_ATOM_COUNT>
28

> <PUBCHEM_ATOM_DEF_STEREO_COUNT>
0

> <PUBCHEM_ATOM_UDEF_STEREO_COUNT>
0

> <PUBCHEM_BOND_DEF_STEREO_COUNT>
0

> <PUBCHEM_BOND_UDEF_STEREO_COUNT>
0

> <PUBCHEM_ISOTOPIC_ATOM_COUNT>
0

> <PUBCHEM_COMPONENT_COUNT>
1

> <PUBCHEM_CACTVS_TAUTO_COUNT>
23

> <PUBCHEM_CONFORMER_ID>
00F4CCEA00000001

> <PUBCHEM_MMFF94_ENERGY>
84.6255

> <PUBCHEM_FEATURE_SELFOVERLAP>
61.022

> <PUBCHEM_SHAPE_FINGERPRINT>
10 15 14405178474390762986
10076449 9 15791736313518485545
10299344 5 18202567280429562294
10319926 262 16343697742444917539
10391435 84 17967815007028140088
11135926 11 17967816028988198739
11315181 36 17703792535709987753
11524674 6 15123789600239108789
11991303 11 17240773929198045354
12082328 90 18113899351968334797
12166972 35 18272370888790486136
12236239 1 18201721769268499393
12516196 113 18273495672137369016
13533116 47 18334577924269345896
13668630 136 17822012021179847811
13782708 43 17918269853170331818
14068700 675 17917993888326147184
14251764 18 18272373074854219658
14347332 77 18339921515941083312
14856354 85 17418096537902039845
150020 25 16805318890220123870
15119646 104 18341613685816445822
15183329 4 18409728469732616874
15198563 99 17240757329138371364
15348495 7 14907885120231609410
15352257 5 16773803580228264246
15419008 47 16443343195430787500
15419008 91 16226605316085597452
15716309 27 18341615901528602937
1577012 14 18342745100355483320
15849732 13 16588027930614128854
17093844 174 15051733071706185531
2026 5 18125445203725243606
21315759 40 18201723938110751128
21792961 116 16732699428555174033
22956985 138 17413887431746336726
23035841 295 17847062194458123199
23081809 10 18342181063701515600
23522609 53 18127721333615920784
23559900 14 18042126616508546769
23569943 247 18337948970205558619
23576562 1 17024028353866949439
3418910 222 15841554123930305816
4325135 7 18131353007409637582
504579 68 18187938300503890038
5219985 9 18272370875467734089
5364581 5 15050863430321932931
54039377 194 18270682099808830751
59682541 35 13254793568931655903
5969126 39 18334009471941449645
9831232 110 17559689334930131766
9953998 17 14549019897415101495
9962374 69 18334568041692665706

> <PUBCHEM_SHAPE_MULTIPOLES>
537.05
25.26
1.82
1.51
18.15
0.27
0.06
9.11
2.05
2.64
0.07
-2.97
0.26
-3.49

> <PUBCHEM_SHAPE_SELFOVERLAP>
1178.897

> <PUBCHEM_SHAPE_VOLUME>
294.7

> <PUBCHEM_COORDINATE_TYPE>
2
5
10

$$$$
6540003
  -OEChem-05102415033D

 50 53  0     0  0  0  0  0  0999 V2000
   -6.1741   -1.6728   -0.8766 S   0  0  0  0  0  0  0  0  0  0  0  0
    2.5283    0.1271   -1.0285 O   0  0  0  0  0  0  0  0  0  0  0  0
    1.5758   -0.5140    1.0139 N   0  0  0  0  0  0  0  0  0  0  0  0
   -7.2566    0.7146   -0.4003 N   0  0  0  0  0  0  0  0  0  0  0  0
    3.8665   -0.2684    0.8481 N   0  0  0  0  0  0  0  0  0  0  0  0
   -5.8478    2.5161    0.4052 N   0  0  0  0  0  0  0  0  0  0  0  0
   -3.5233    2.2551    0.7957 N   0  0  0  0  0  0  0  0  0  0  0  0
   -3.9233   -0.6811   -0.1376 C   0  0  0  0  0  0  0  0  0  0  0  0
   -4.8709    0.3838   -0.0182 C   0  0  0  0  0  0  0  0  0  0  0  0
   -2.5116   -0.6381    0.1578 C   0  0  0  0  0  0  0  0  0  0  0  0
   -4.4965   -1.8488   -0.5922 C   0  0  0  0  0  0  0  0  0  0  0  0
   -6.1393   -0.0384   -0.3950 C   0  0  0  0  0  0  0  0  0  0  0  0
   -2.0646   -0.9484    1.4383 C   0  0  0  0  0  0  0  0  0  0  0  0
   -1.6077   -0.2866   -0.8400 C   0  0  0  0  0  0  0  0  0  0  0  0
   -4.7598    1.7166    0.3912 C   0  0  0  0  0  0  0  0  0  0  0  0
    0.2109   -0.5551    0.7277 C   0  0  0  0  0  0  0  0  0  0  0  0
   -3.8708   -3.1678   -0.8506 C   0  0  0  0  0  0  0  0  0  0  0  0
   -0.6999   -0.9068    1.7239 C   0  0  0  0  0  0  0  0  0  0  0  0
   -0.2430   -0.2451   -0.5542 C   0  0  0  0  0  0  0  0  0  0  0  0
    5.1700   -0.0203    0.3569 C   0  0  0  0  0  0  0  0  0  0  0  0
    6.6208    0.5999   -1.4502 C   0  0  0  0  0  0  0  0  0  0  0  0
    7.5384    0.0850    0.7247 C   0  0  0  0  0  0  0  0  0  0  0  0
    6.2532   -0.1591    1.2090 C   0  0  0  0  0  0  0  0  0  0  0  0
    5.3357    0.3558   -0.9657 C   0  0  0  0  0  0  0  0  0  0  0  0
    7.7222    0.4644   -0.6049 C   0  0  0  0  0  0  0  0  0  0  0  0
    2.6501   -0.1847    0.1518 C   0  0  0  0  0  0  0  0  0  0  0  0
   -7.0164    1.9718    0.0130 C   0  0  0  0  0  0  0  0  0  0  0  0
    6.8178    1.0059   -2.8714 C   0  0  0  0  0  0  0  0  0  0  0  0
    8.7159   -0.0607    1.6280 C   0  0  0  0  0  0  0  0  0  0  0  0
   -2.7621   -1.2236    2.2257 H   0  0  0  0  0  0  0  0  0  0  0  0
   -1.9475   -0.0417   -1.8435 H   0  0  0  0  0  0  0  0  0  0  0  0
   -4.5860   -3.9146   -1.2119 H   0  0  0  0  0  0  0  0  0  0  0  0
   -3.0842   -3.0775   -1.6073 H   0  0  0  0  0  0  0  0  0  0  0  0
   -3.4203   -3.5646    0.0654 H   0  0  0  0  0  0  0  0  0  0  0  0
   -0.3602   -1.1507    2.7274 H   0  0  0  0  0  0  0  0  0  0  0  0
    0.3967    0.0362   -1.3784 H   0  0  0  0  0  0  0  0  0  0  0  0
    1.8292   -0.7527    1.9695 H   0  0  0  0  0  0  0  0  0  0  0  0
    6.1082   -0.4570    2.2445 H   0  0  0  0  0  0  0  0  0  0  0  0
    4.5301    0.4817   -1.6735 H   0  0  0  0  0  0  0  0  0  0  0  0
    8.7248    0.6540   -0.9808 H   0  0  0  0  0  0  0  0  0  0  0  0
    3.8132   -0.5406    1.8265 H   0  0  0  0  0  0  0  0  0  0  0  0
   -7.8746    2.6343    0.0333 H   0  0  0  0  0  0  0  0  0  0  0  0
   -3.4967    3.2247    1.0832 H   0  0  0  0  0  0  0  0  0  0  0  0
   -2.6736    1.7151    0.8101 H   0  0  0  0  0  0  0  0  0  0  0  0
    6.1975    0.3967   -3.5377 H   0  0  0  0  0  0  0  0  0  0  0  0
    6.5509    2.0595   -3.0019 H   0  0  0  0  0  0  0  0  0  0  0  0
    7.8575    0.8732   -3.1893 H   0  0  0  0  0  0  0  0  0  0  0  0
    8.4472    0.1582    2.6671 H   0  0  0  0  0  0  0  0  0  0  0  0
    9.1061   -1.0819    1.5747 H   0  0  0  0  0  0  0  0  0  0  0  0
    9.5147    0.6356    1.3510 H   0  0  0  0  0  0  0  0  0  0  0  0
  1 11  1  0  0  0  0
  1 12  1  0  0  0  0
  2 26  2  0  0  0  0
  3 16  1  0  0  0  0
  3 26  1  0  0  0  0
  3 37  1  0  0  0  0
  4 12  2  0  0  0  0
  4 27  1  0  0  0  0
  5 20  1  0  0  0  0
  5 26  1  0  0  0  0
  5 41  1  0  0  0  0
  6 15  1  0  0  0  0
  6 27  2  0  0  0  0
  7 15  1  0  0  0  0
  7 43  1  0  0  0  0
  7 44  1  0  0  0  0
  8  9  1  0  0  0  0
  8 10  1  0  0  0  0
  8 11  2  0  0  0  0
  9 12  1  0  0  0  0
  9 15  2  0  0  0  0
 10 13  2  0  0  0  0
 10 14  1  0  0  0  0
 11 17  1  0  0  0  0
 13 18  1  0  0  0  0
 13 30  1  0  0  0  0
 14 19  2  0  0  0  0
 14 31  1  0  0  0  0
 16 18  2  0  0  0  0
 16 19  1  0  0  0  0
 17 32  1  0  0  0  0
 17 33  1  0  0  0  0
 17 34  1  0  0  0  0
 18 35  1  0  0  0  0
 19 36  1  0  0  0  0
 20 23  2  0  0  0  0
 20 24  1  0  0  0  0
 21 24  2  0  0  0  0
 21 25  1  0  0  0  0
 21 28  1  0  0  0  0
 22 23  1  0  0  0  0
 22 25  2  0  0  0  0
 22 29  1  0  0  0  0
 23 38  1  0  0  0  0
 24 39  1  0  0  0  0
 25 40  1  0  0  0  0
 27 42  1  0  0  0  0
 28 45  1  0  0  0  0
 28 46  1  0  0  0  0
 28 47  1  0  0  0  0
 29 48  1  0  0  0  0
 29 49  1  0  0  0  0
 29 50  1  0  0  0  0
M  END
> <PUBCHEM_COMPOUND_CID>
6540003

> <PUBCHEM_CONFORMER_RMSD>
0.8

> <PUBCHEM_CONFORMER_DIVERSEORDER>
1
8
4
10
7
6
9
5
3
2

> <PUBCHEM_MMFF94_PARTIAL_CHARGES>
40
1 -0.08
10 0.05
11 -0.14
12 0.3
13 -0.15
14 -0.15
15 0.41
16 0.12
17 0.18
18 -0.15
19 -0.15
2 -0.57
20 0.12
21 -0.14
22 -0.14
23 -0.15
24 -0.15
25 -0.15
26 0.69
27 0.47
28 0.14
29 0.14
3 -0.55
30 0.15
31 0.15
35 0.15
36 0.15
37 0.37
38 0.15
39 0.15
4 -0.57
40 0.15
41 0.37
42 0.15
43 0.4
44 0.4
5 -0.55
6 -0.62
7 -0.9
8 -0.05

> <PUBCHEM_EFFECTIVE_ROTOR_COUNT>
5

> <PUBCHEM_PHARMACOPHORE_FEATURES>
11
1 2 acceptor
1 3 donor
1 4 acceptor
1 5 donor
1 7 cation
1 7 donor
3 4 6 27 cation
5 1 8 9 11 12 rings
6 10 13 14 16 18 19 rings
6 20 21 22 23 24 25 rings
6 4 6 9 12 15 27 rings

> <PUBCHEM_HEAVY_ATOM_COUNT>
29

> <PUBCHEM_ATOM_DEF_STEREO_COUNT>
0

> <PUBCHEM_ATOM_UDEF_STEREO_COUNT>
0

> <PUBCHEM_BOND_DEF_STEREO_COUNT>
0

> <PUBCHEM_BOND_UDEF_STEREO_COUNT>
0

> <PUBCHEM_ISOTOPIC_ATOM_COUNT>
0

> <PUBCHEM_COMPONENT_COUNT>
1

> <PUBCHEM_CACTVS_TAUTO_COUNT>
12

> <PUBCHEM_CONFORMER_ID>
0063CAE300000001

> <PUBCHEM_MMFF94_ENERGY>
90.7

> <PUBCHEM_FEATURE_SELFOVERLAP>
55.951

> <PUBCHEM_SHAPE_FINGERPRINT>
10 15 13623533480656268630
10076449 9 17704353295462209611
10299344 5 18113052744873121422
10391435 84 15769483314299547486
10411042 1 17981880059315527863
10554248 39 17603589634540193302
106641 1 16515694342869056953
10906281 52 17822304478388070426
11315181 36 18186518835013240439
11991303 11 16558462092992147772
12082328 90 18413103974429542151
12236239 1 18186516592929587787
13885169 127 18343579642317927714
13914758 101 18411982451426209290
14251764 18 17967252009234011422
14849402 71 17458919235082076789
14856354 85 18340207492133373399
150020 25 17346599660345037080
15183329 4 18412831282956058296
15198563 99 16343431604596741480
15276724 80 17530682113370641100
15419008 47 17346593071559536976
15419008 91 17632279195332447664
15461852 350 18341334469564933678
15510794 2 17418374701659509958
1577012 14 17894354406288813196
15849732 13 17203607103542433396
17093844 174 18131627911255560563
20281389 69 16081085991837100686
21150785 3 15554441895121889912
21756936 100 18040999527871118387
21792961 116 17275107210487684810
22224240 67 15719396131305334761
23081809 10 18113616815913370258
23522609 53 17968676963925753220
23559900 14 17632288008415252779
23576562 1 18120942960810601412
249057 3 18273212028244007813
2838139 119 17095518509167123998
328310 630 17313111881704854558
394071 54 16660365874969620150
4073 2 18333735719062859442
4339292 15 17560224960407591463
437795 51 13551467034918098000
44555599 121 17967256412150983972
445580 37 18341619208969938381
44880568 143 17846785100275046496
5265222 85 18058166305072186071
54039377 194 11815597724182113333
5758199 1 17894347774184269922
58260988 114 16443920483119341795
58902169 19 18186519934398274846
5969126 39 14189578507591042691
59755656 520 17167860881096178491
9962374 69 13110694809792023172

> <PUBCHEM_SHAPE_MULTIPOLES>
569.88
26.61
1.96
1.62
33.25
0
-0.5
7.23
-2.96
-5.68
-0.2
3.42
0.04
-2.53

> <PUBCHEM_SHAPE_SELFOVERLAP>
1243.885

> <PUBCHEM_SHAPE_VOLUME>
312.4

> <PUBCHEM_COORDINATE_TYPE>
2
5
10

$$$$
