16050452
  -OEChem-05102415013D

 48 52  0     0  0  0  0  0  0999 V2000
   -0.2192    1.5511   -2.0823 F   0  0  0  0  0  0  0  0  0  0  0  0
   -0.5623    5.8381   -0.1169 F   0  0  0  0  0  0  0  0  0  0  0  0
    5.5269   -2.3974   -1.0704 O   0  0  0  0  0  0  0  0  0  0  0  0
    3.4948   -0.7764    0.6725 N   0  0  0  0  0  0  0  0  0  0  0  0
    1.1516   -0.6662    0.6188 N   0  0  0  0  0  0  0  0  0  0  0  0
    2.3534   -0.4472    2.6961 N   0  0  0  0  0  0  0  0  0  0  0  0
   -1.8864   -1.7068    0.2353 N   0  0  0  0  0  0  0  0  0  0  0  0
   -2.9964   -0.0640   -0.7898 N   0  0  0  0  0  0  0  0  0  0  0  0
   -3.6904   -3.6308   -0.6600 N   0  0  0  0  0  0  0  0  0  0  0  0
    5.0140   -1.0791   -1.1813 C   0  0  0  0  0  0  0  0  0  0  0  0
    5.9209    0.0627   -0.9056 C   0  0  0  0  0  0  0  0  0  0  0  0
    5.4736   -0.2292   -2.3079 C   0  0  0  0  0  0  0  0  0  0  0  0
    3.5666   -0.9701   -0.7418 C   0  0  0  0  0  0  0  0  0  0  0  0
    2.2730   -0.6224    1.3633 C   0  0  0  0  0  0  0  0  0  0  0  0
    0.0083   -0.5153    1.3140 C   0  0  0  0  0  0  0  0  0  0  0  0
   -1.1928   -0.5631    0.5117 C   0  0  0  0  0  0  0  0  0  0  0  0
   -1.8960    0.4349   -0.1306 C   0  0  0  0  0  0  0  0  0  0  0  0
   -2.9573   -1.3524   -0.5473 C   0  0  0  0  0  0  0  0  0  0  0  0
   -0.0507   -0.3291    2.6767 C   0  0  0  0  0  0  0  0  0  0  0  0
    1.1678   -0.3033    3.3239 C   0  0  0  0  0  0  0  0  0  0  0  0
   -1.5509    1.8253   -0.1305 C   0  0  0  0  0  0  0  0  0  0  0  0
   -3.8703   -2.3785   -0.9914 C   0  0  0  0  0  0  0  0  0  0  0  0
   -1.6986   -3.0305    0.5842 C   0  0  0  0  0  0  0  0  0  0  0  0
   -2.5908   -3.9330    0.1333 C   0  0  0  0  0  0  0  0  0  0  0  0
   -0.7123    2.3443   -1.1199 C   0  0  0  0  0  0  0  0  0  0  0  0
   -2.0540    2.6680    0.8632 C   0  0  0  0  0  0  0  0  0  0  0  0
   -5.0405   -1.9888   -1.8484 C   0  0  0  0  0  0  0  0  0  0  0  0
   -0.3787    3.6988   -1.1152 C   0  0  0  0  0  0  0  0  0  0  0  0
   -1.7205    4.0223    0.8678 C   0  0  0  0  0  0  0  0  0  0  0  0
   -0.8828    4.5378   -0.1213 C   0  0  0  0  0  0  0  0  0  0  0  0
    6.9528   -0.1499   -0.6528 H   0  0  0  0  0  0  0  0  0  0  0  0
    5.5263    0.9548   -0.4343 H   0  0  0  0  0  0  0  0  0  0  0  0
    4.7805    0.4644   -2.7681 H   0  0  0  0  0  0  0  0  0  0  0  0
    6.2067   -0.6375   -2.9935 H   0  0  0  0  0  0  0  0  0  0  0  0
    3.0807   -0.1313   -1.2558 H   0  0  0  0  0  0  0  0  0  0  0  0
    3.0328   -1.8820   -1.0360 H   0  0  0  0  0  0  0  0  0  0  0  0
    5.1314   -2.9848   -1.7366 H   0  0  0  0  0  0  0  0  0  0  0  0
    4.3361   -0.7600    1.2378 H   0  0  0  0  0  0  0  0  0  0  0  0
   -0.9808   -0.2093    3.2178 H   0  0  0  0  0  0  0  0  0  0  0  0
    1.2262   -0.1615    4.3977 H   0  0  0  0  0  0  0  0  0  0  0  0
   -0.8500   -3.2968    1.2011 H   0  0  0  0  0  0  0  0  0  0  0  0
   -2.4755   -4.9814    0.3867 H   0  0  0  0  0  0  0  0  0  0  0  0
   -2.7082    2.2827    1.6421 H   0  0  0  0  0  0  0  0  0  0  0  0
   -4.6816   -1.5241   -2.7712 H   0  0  0  0  0  0  0  0  0  0  0  0
   -5.6392   -2.8679   -2.1025 H   0  0  0  0  0  0  0  0  0  0  0  0
   -5.6691   -1.2742   -1.3093 H   0  0  0  0  0  0  0  0  0  0  0  0
    0.2737    4.1001   -1.8850 H   0  0  0  0  0  0  0  0  0  0  0  0
   -2.1125    4.6759    1.6415 H   0  0  0  0  0  0  0  0  0  0  0  0
  1 25  1  0  0  0  0
  2 30  1  0  0  0  0
  3 10  1  0  0  0  0
  3 37  1  0  0  0  0
  4 13  1  0  0  0  0
  4 14  1  0  0  0  0
  4 38  1  0  0  0  0
  5 14  1  0  0  0  0
  5 15  2  0  0  0  0
  6 14  2  0  0  0  0
  6 20  1  0  0  0  0
  7 16  1  0  0  0  0
  7 18  1  0  0  0  0
  7 23  1  0  0  0  0
  8 17  1  0  0  0  0
  8 18  2  0  0  0  0
  9 22  2  0  0  0  0
  9 24  1  0  0  0  0
 10 11  1  0  0  0  0
 10 12  1  0  0  0  0
 10 13  1  0  0  0  0
 11 12  1  0  0  0  0
 11 31  1  0  0  0  0
 11 32  1  0  0  0  0
 12 33  1  0  0  0  0
 12 34  1  0  0  0  0
 13 35  1  0  0  0  0
 13 36  1  0  0  0  0
 15 16  1  0  0  0  0
 15 19  1  0  0  0  0
 16 17  2  0  0  0  0
 17 21  1  0  0  0  0
 18 22  1  0  0  0  0
 19 20  2  0  0  0  0
 19 39  1  0  0  0  0
 20 40  1  0  0  0  0
 21 25  2  0  0  0  0
 21 26  1  0  0  0  0
 22 27  1  0  0  0  0
 23 24  2  0  0  0  0
 23 41  1  0  0  0  0
 24 42  1  0  0  0  0
 25 28  1  0  0  0  0
 26 29  2  0  0  0  0
 26 43  1  0  0  0  0
 27 44  1  0  0  0  0
 27 45  1  0  0  0  0
 27 46  1  0  0  0  0
 28 30  2  0  0  0  0
 28 47  1  0  0  0  0
 29 30  1  0  0  0  0
 29 48  1  0  0  0  0
M  END
> <PUBCHEM_COMPOUND_CID>
16050452

> <PUBCHEM_CONFORMER_RMSD>
0.8

> <PUBCHEM_CONFORMER_DIVERSEORDER>
1
102
85
126
15
37
110
34
108
23
17
119
45
43
28
75
111
51
125
46
42
19
10
82
87
9
25
80
86
20
27
22
48
12
84
44
73
122
41
103
109
76
77
101
66
89
95
62
65
112
104
94
107
98
123
35
16
13
40
121
90
57
33
78
106
83
105
69
14
92
56
99
36
60
114
100
47
67
81
59
52
113
64
32
61
70
58
71
4
117
38
124
120
50
21
49
91
96
39
74
26
7
63
118
53
55
29
116
31
97
88
30
2
54
93
24
68
8
115
79
6
3
11
72
5
18

> <PUBCHEM_MMFF94_PARTIAL_CHARGES>
43
1 -0.19
10 0.05
11 -0.2
12 -0.2
13 0.46
14 0.72
15 0.36
16 -0.2
17 0.17
18 0.1
19 -0.15
2 -0.19
20 0.16
21 0.05
22 0.47
23 -0.18
24 0.02
25 0.19
26 -0.15
27 0.06
28 -0.15
29 -0.15
3 -0.55
30 0.19
31 0.1
32 0.1
33 0.1
34 0.1
37 0.4
38 0.4
39 0.15
4 -0.87
40 0.15
41 0.15
42 0.15
43 0.15
47 0.15
48 0.15
5 -0.62
6 -0.62
7 0.33
8 -0.57
9 -0.62

> <PUBCHEM_EFFECTIVE_ROTOR_COUNT>
5.6

> <PUBCHEM_PHARMACOPHORE_FEATURES>
11
1 3 acceptor
1 3 donor
1 4 donor
1 5 acceptor
1 9 acceptor
3 7 8 18 cation
4 4 5 6 14 cation
5 7 8 16 17 18 rings
6 21 25 26 28 29 30 rings
6 5 6 14 15 19 20 rings
6 7 9 18 22 23 24 rings

> <PUBCHEM_HEAVY_ATOM_COUNT>
30

> <PUBCHEM_ATOM_DEF_STEREO_COUNT>
0

> <PUBCHEM_ATOM_UDEF_STEREO_COUNT>
0

> <PUBCHEM_BOND_DEF_STEREO_COUNT>
0

> <PUBCHEM_BOND_UDEF_STEREO_COUNT>
0

> <PUBCHEM_ISOTOPIC_ATOM_COUNT>
0

> <PUBCHEM_COMPONENT_COUNT>
1

> <PUBCHEM_CACTVS_TAUTO_COUNT>
3

> <PUBCHEM_CONFORMER_ID>
00F4E91400000001

> <PUBCHEM_MMFF94_ENERGY>
87.084

> <PUBCHEM_FEATURE_SELFOVERLAP>
55.94

> <PUBCHEM_SHAPE_FINGERPRINT>
10165383 225 17769102241661699281
11049842 53 17834098755041534762
11445158 3 16687720409618765786
11477941 20 18339939207285909796
11488393 25 17183073977175741170
11607047 141 17762644054654508627
11607047 403 17405180347283622201
12788726 201 18261385616218545747
131258 43 17771355449970981909
13757389 114 18270132205928027349
13761468 95 17318744452694676788
14022347 108 18265592425401262115
14713325 29 18118143397457321378
14910302 57 18272645706657233378
14950920 106 9582661002912263078
14955137 171 18336278928718505987
151778 21 17328868695048418488
15324884 4 17914587666144374955
15463212 79 18190747427504898778
15475509 8 18343014506975336567
15664445 248 18121482803185894186
15842332 3 17752192908299099770
16991981 162 18196673812696610024
20600515 1 18123157304024418475
20642791 239 17603861256328573021
20693207 138 17846208947881807186
21033650 10 18190191101066183834
21120745 212 18340781402284093037
21756936 100 17388561327871167552
22907989 373 18191851358416567783
23557571 272 18268690848914581608
23559900 14 18123460846469820863
24893989 43 16326448643084540877
312425 83 18122363298100801438
350125 39 17331933060236147313
3610482 184 17825984479909021486
4280585 95 18265604558646741610
531348 171 18192730947125472118
621550 5 17917993922785527506
6786 2 17622740712727974569
7399639 24 18058434573831076336

> <PUBCHEM_SHAPE_MULTIPOLES>
567.08
9.32
5.92
2.4
14.78
8.23
1.62
-9.71
-7.39
-6.38
-1.14
1.65
-0.41
-0.69

> <PUBCHEM_SHAPE_SELFOVERLAP>
1260.344

> <PUBCHEM_SHAPE_VOLUME>
304.8

> <PUBCHEM_COORDINATE_TYPE>
2
5
10

$$$$
49830605
  -OEChem-05102415013D

 44 47  0     0  0  0  0  0  0999 V2000
   -4.3115   -4.3774    0.6535 F   0  0  0  0  0  0  0  0  0  0  0  0
    5.6674   -1.6912    1.2740 O   0  0  0  0  0  0  0  0  0  0  0  0
   -0.5732    2.2655   -0.1515 N   0  0  0  0  0  0  0  0  0  0  0  0
   -2.5283    1.7837    0.8145 N   0  0  0  0  0  0  0  0  0  0  0  0
    1.4381    0.0320   -0.4212 N   0  0  0  0  0  0  0  0  0  0  0  0
    3.6228   -0.8211   -0.4887 N   0  0  0  0  0  0  0  0  0  0  0  0
   -0.8215    4.9697    0.4744 N   0  0  0  0  0  0  0  0  0  0  0  0
    2.1034   -1.5327   -2.1291 N   0  0  0  0  0  0  0  0  0  0  0  0
   -0.7398    0.9189   -0.3068 C   0  0  0  0  0  0  0  0  0  0  0  0
   -1.9510    0.6460    0.2964 C   0  0  0  0  0  0  0  0  0  0  0  0
   -1.6715    2.7321    0.5253 C   0  0  0  0  0  0  0  0  0  0  0  0
    0.2076    0.0555   -0.9742 C   0  0  0  0  0  0  0  0  0  0  0  0
   -2.5590   -0.6480    0.3883 C   0  0  0  0  0  0  0  0  0  0  0  0
    0.4238    3.1459   -0.5288 C   0  0  0  0  0  0  0  0  0  0  0  0
   -1.7601    4.1331    0.8280 C   0  0  0  0  0  0  0  0  0  0  0  0
   -0.1459   -0.6767   -2.0892 C   0  0  0  0  0  0  0  0  0  0  0  0
   -1.8969   -1.6846    1.0463 C   0  0  0  0  0  0  0  0  0  0  0  0
   -3.8132   -0.8712   -0.1798 C   0  0  0  0  0  0  0  0  0  0  0  0
    2.3240   -0.7715   -1.0402 C   0  0  0  0  0  0  0  0  0  0  0  0
    0.2700    4.4458   -0.2091 C   0  0  0  0  0  0  0  0  0  0  0  0
    4.0042   -0.0687    0.6652 C   0  0  0  0  0  0  0  0  0  0  0  0
    0.8526   -1.4610   -2.6298 C   0  0  0  0  0  0  0  0  0  0  0  0
   -2.4888   -2.9443    1.1358 C   0  0  0  0  0  0  0  0  0  0  0  0
   -4.4053   -2.1309   -0.0903 C   0  0  0  0  0  0  0  0  0  0  0  0
    5.4694   -0.3132    0.9841 C   0  0  0  0  0  0  0  0  0  0  0  0
   -3.7430   -3.1675    0.5676 C   0  0  0  0  0  0  0  0  0  0  0  0
    7.0259   -1.9680    1.5854 C   0  0  0  0  0  0  0  0  0  0  0  0
    1.2854    2.7715   -1.0659 H   0  0  0  0  0  0  0  0  0  0  0  0
   -2.6417    4.5086    1.3714 H   0  0  0  0  0  0  0  0  0  0  0  0
   -1.1355   -0.6468   -2.5278 H   0  0  0  0  0  0  0  0  0  0  0  0
   -0.9223   -1.5308    1.5037 H   0  0  0  0  0  0  0  0  0  0  0  0
   -4.3425   -0.0748   -0.6977 H   0  0  0  0  0  0  0  0  0  0  0  0
    1.0309    5.1661   -0.4900 H   0  0  0  0  0  0  0  0  0  0  0  0
    3.8484    1.0029    0.4957 H   0  0  0  0  0  0  0  0  0  0  0  0
    3.3932   -0.3765    1.5221 H   0  0  0  0  0  0  0  0  0  0  0  0
    4.2876   -1.4310   -0.9506 H   0  0  0  0  0  0  0  0  0  0  0  0
    0.6691   -2.0711   -3.5078 H   0  0  0  0  0  0  0  0  0  0  0  0
   -1.9744   -3.7513    1.6492 H   0  0  0  0  0  0  0  0  0  0  0  0
   -5.3815   -2.3054   -0.5329 H   0  0  0  0  0  0  0  0  0  0  0  0
    6.0969   -0.0248    0.1319 H   0  0  0  0  0  0  0  0  0  0  0  0
    5.7587    0.2885    1.8534 H   0  0  0  0  0  0  0  0  0  0  0  0
    7.1191   -3.0361    1.7995 H   0  0  0  0  0  0  0  0  0  0  0  0
    7.3391   -1.4060    2.4705 H   0  0  0  0  0  0  0  0  0  0  0  0
    7.6715   -1.7249    0.7359 H   0  0  0  0  0  0  0  0  0  0  0  0
  1 26  1  0  0  0  0
  2 25  1  0  0  0  0
  2 27  1  0  0  0  0
  3  9  1  0  0  0  0
  3 11  1  0  0  0  0
  3 14  1  0  0  0  0
  4 10  1  0  0  0  0
  4 11  2  0  0  0  0
  5 12  2  0  0  0  0
  5 19  1  0  0  0  0
  6 19  1  0  0  0  0
  6 21  1  0  0  0  0
  6 36  1  0  0  0  0
  7 15  2  0  0  0  0
  7 20  1  0  0  0  0
  8 19  2  0  0  0  0
  8 22  1  0  0  0  0
  9 10  2  0  0  0  0
  9 12  1  0  0  0  0
 10 13  1  0  0  0  0
 11 15  1  0  0  0  0
 12 16  1  0  0  0  0
 13 17  2  0  0  0  0
 13 18  1  0  0  0  0
 14 20  2  0  0  0  0
 14 28  1  0  0  0  0
 15 29  1  0  0  0  0
 16 22  2  0  0  0  0
 16 30  1  0  0  0  0
 17 23  1  0  0  0  0
 17 31  1  0  0  0  0
 18 24  2  0  0  0  0
 18 32  1  0  0  0  0
 20 33  1  0  0  0  0
 21 25  1  0  0  0  0
 21 34  1  0  0  0  0
 21 35  1  0  0  0  0
 22 37  1  0  0  0  0
 23 26  2  0  0  0  0
 23 38  1  0  0  0  0
 24 26  1  0  0  0  0
 24 39  1  0  0  0  0
 25 40  1  0  0  0  0
 25 41  1  0  0  0  0
 27 42  1  0  0  0  0
 27 43  1  0  0  0  0
 27 44  1  0  0  0  0
M  END
> <PUBCHEM_COMPOUND_CID>
49830605

> <PUBCHEM_CONFORMER_RMSD>
0.8

> <PUBCHEM_CONFORMER_DIVERSEORDER>
2
48
5
36
11
6
44
45
25
33
49
1
12
26
27
55
64
28
47
31
13
59
3
8
20
61
23
30
16
34
65
52
17
53
51
24
60
4
18
37
19
42
21
38
62
41
15
63
35
50
22
7
46
56
10
54
29
39
58
57
43
14
9
32
40

> <PUBCHEM_MMFF94_PARTIAL_CHARGES>
37
1 -0.19
10 0.17
11 0.1
12 0.36
13 0.05
14 -0.18
15 0.47
16 -0.15
17 -0.15
18 -0.15
19 0.72
2 -0.56
20 0.02
21 0.37
22 0.16
23 -0.15
24 -0.15
25 0.28
26 0.19
27 0.28
28 0.15
29 0.06
3 0.33
30 0.15
31 0.15
32 0.15
33 0.15
36 0.4
37 0.15
38 0.15
39 0.15
4 -0.57
5 -0.62
6 -0.87
7 -0.62
8 -0.62
9 -0.2

> <PUBCHEM_EFFECTIVE_ROTOR_COUNT>
6

> <PUBCHEM_PHARMACOPHORE_FEATURES>
10
1 2 acceptor
1 5 acceptor
1 6 donor
1 7 acceptor
3 3 4 11 cation
4 5 6 8 19 cation
5 3 4 9 10 11 rings
6 13 17 18 23 24 26 rings
6 3 7 11 14 15 20 rings
6 5 8 12 16 19 22 rings

> <PUBCHEM_HEAVY_ATOM_COUNT>
27

> <PUBCHEM_ATOM_DEF_STEREO_COUNT>
0

> <PUBCHEM_ATOM_UDEF_STEREO_COUNT>
0

> <PUBCHEM_BOND_DEF_STEREO_COUNT>
0

> <PUBCHEM_BOND_UDEF_STEREO_COUNT>
0

> <PUBCHEM_ISOTOPIC_ATOM_COUNT>
0

> <PUBCHEM_COMPONENT_COUNT>
1

> <PUBCHEM_CACTVS_TAUTO_COUNT>
3

> <PUBCHEM_CONFORMER_ID>
02F85ACD00000002

> <PUBCHEM_MMFF94_ENERGY>
77.2284

> <PUBCHEM_FEATURE_SELFOVERLAP>
50.866

> <PUBCHEM_SHAPE_FINGERPRINT>
10074138 170 18266732489698576057
10319926 262 18125440813983186958
10906281 52 18271262551120766109
1100329 8 18410304605631464553
11552529 35 18189043232043153322
11963148 33 16971110151491262247
12160290 23 17899163553857728965
12553582 1 18124348049300178959
12592029 89 17333101213857265521
12788726 201 18262540120454332440
12930653 34 18268144250139597662
13083527 12 18126011700423676487
13140716 1 18341902912919124857
140371 6 18342187635218120125
14081887 123 18340496547294337574
14178342 30 18264497178538574846
14844126 61 18261957345100717705
14950920 106 18189036631010443098
15475509 35 17101746310736853187
19591789 44 16758613036853602453
20600515 1 18270696311111268833
20642791 13 18129665176058587397
21033648 29 17274834544552396722
21304303 282 17975115562304953749
21421861 104 17693976220377350475
21650355 55 18409451362452673345
22182313 1 17559963126120366886
22956985 138 17830449840672473682
23366157 5 17757003559523163757
23419403 2 17973143304611065021
23559900 14 18192138511666967691
3187 122 18341606023330941632
376196 1 17051888539168148140
3886686 26 17689714165216084842
484985 159 17679278799161793706
56638632 33 18043247057748676648
613672 6 18341900722702296511
7288768 16 17484808108552941464
81228 2 18055102907295752489
9981440 41 17628900254265792830

> <PUBCHEM_SHAPE_MULTIPOLES>
512.62
9.89
5.87
1.69
19.07
6.65
-1.06
-12.53
6.42
-5.93
1.78
1.39
-1.13
-0.32

> <PUBCHEM_SHAPE_SELFOVERLAP>
1128.545

> <PUBCHEM_SHAPE_VOLUME>
277.8

> <PUBCHEM_COORDINATE_TYPE>
2
5
10

$$$$
49830614
  -OEChem-05102415013D

 50 53  0     0  0  0  0  0  0999 V2000
   -5.8404   -0.9714    1.8489 Cl  0  0  0  0  0  0  0  0  0  0  0  0
    2.1696   -4.8389   -0.7467 F   0  0  0  0  0  0  0  0  0  0  0  0
    5.2220   -0.6891    0.2375 O   0  0  0  0  0  0  0  0  0  0  0  0
    2.7958    1.7944   -0.3072 N   0  0  0  0  0  0  0  0  0  0  0  0
   -2.8333    0.9161    0.0263 N   0  0  0  0  0  0  0  0  0  0  0  0
    0.5829    1.0885   -0.3513 N   0  0  0  0  0  0  0  0  0  0  0  0
   -2.9540   -1.2302    0.6269 N   0  0  0  0  0  0  0  0  0  0  0  0
    1.5103    2.4061   -2.1433 N   0  0  0  0  0  0  0  0  0  0  0  0
   -5.3787    1.4533    1.0263 N   0  0  0  0  0  0  0  0  0  0  0  0
    4.5061    1.3233    1.4292 C   0  0  0  0  0  0  0  0  0  0  0  0
    3.0384    1.1557    0.9662 C   0  0  0  0  0  0  0  0  0  0  0  0
    5.5007    0.6921    0.4294 C   0  0  0  0  0  0  0  0  0  0  0  0
    4.6503    0.6278    2.7990 C   0  0  0  0  0  0  0  0  0  0  0  0
    4.8525    2.8137    1.6029 C   0  0  0  0  0  0  0  0  0  0  0  0
    1.5763    1.7615   -0.9627 C   0  0  0  0  0  0  0  0  0  0  0  0
   -1.6490    0.3566   -0.3604 C   0  0  0  0  0  0  0  0  0  0  0  0
   -0.5906    1.0767   -1.0171 C   0  0  0  0  0  0  0  0  0  0  0  0
   -1.7473   -0.9657    0.0204 C   0  0  0  0  0  0  0  0  0  0  0  0
   -3.5792   -0.0771    0.6124 C   0  0  0  0  0  0  0  0  0  0  0  0
   -0.7384   -1.9633   -0.1772 C   0  0  0  0  0  0  0  0  0  0  0  0
   -0.7884    1.6982   -2.2332 C   0  0  0  0  0  0  0  0  0  0  0  0
   -3.3477    2.1959   -0.0702 C   0  0  0  0  0  0  0  0  0  0  0  0
    0.3083    2.3541   -2.7540 C   0  0  0  0  0  0  0  0  0  0  0  0
   -4.8875    0.2470    1.1143 C   0  0  0  0  0  0  0  0  0  0  0  0
   -0.3086   -2.2746   -1.4671 C   0  0  0  0  0  0  0  0  0  0  0  0
   -0.1857   -2.6232    0.9204 C   0  0  0  0  0  0  0  0  0  0  0  0
   -4.5810    2.4189    0.4239 C   0  0  0  0  0  0  0  0  0  0  0  0
    0.6737   -3.2459   -1.6597 C   0  0  0  0  0  0  0  0  0  0  0  0
    0.7966   -3.5946    0.7280 C   0  0  0  0  0  0  0  0  0  0  0  0
    1.2263   -3.9060   -0.5620 C   0  0  0  0  0  0  0  0  0  0  0  0
    2.3679    1.5891    1.7199 H   0  0  0  0  0  0  0  0  0  0  0  0
    2.7930    0.0883    0.8944 H   0  0  0  0  0  0  0  0  0  0  0  0
    6.5275    0.7794    0.8030 H   0  0  0  0  0  0  0  0  0  0  0  0
    5.4598    1.1870   -0.5464 H   0  0  0  0  0  0  0  0  0  0  0  0
    5.6787    0.6969    3.1712 H   0  0  0  0  0  0  0  0  0  0  0  0
    3.9957    1.0899    3.5469 H   0  0  0  0  0  0  0  0  0  0  0  0
    4.3873   -0.4342    2.7415 H   0  0  0  0  0  0  0  0  0  0  0  0
    4.1457    3.3070    2.2796 H   0  0  0  0  0  0  0  0  0  0  0  0
    5.8559    2.9358    2.0270 H   0  0  0  0  0  0  0  0  0  0  0  0
    4.8368    3.3539    0.6507 H   0  0  0  0  0  0  0  0  0  0  0  0
    3.5396    2.3004   -0.7726 H   0  0  0  0  0  0  0  0  0  0  0  0
    5.8808   -1.0285   -0.3920 H   0  0  0  0  0  0  0  0  0  0  0  0
   -1.7325    1.6767   -2.7633 H   0  0  0  0  0  0  0  0  0  0  0  0
   -2.7524    2.9757   -0.5265 H   0  0  0  0  0  0  0  0  0  0  0  0
    0.2496    2.8701   -3.7064 H   0  0  0  0  0  0  0  0  0  0  0  0
   -0.7317   -1.7792   -2.3378 H   0  0  0  0  0  0  0  0  0  0  0  0
   -0.5077   -2.3913    1.9329 H   0  0  0  0  0  0  0  0  0  0  0  0
   -5.0155    3.4113    0.3685 H   0  0  0  0  0  0  0  0  0  0  0  0
    1.0075   -3.4899   -2.6639 H   0  0  0  0  0  0  0  0  0  0  0  0
    1.2277   -4.1082    1.5823 H   0  0  0  0  0  0  0  0  0  0  0  0
  1 24  1  0  0  0  0
  2 30  1  0  0  0  0
  3 12  1  0  0  0  0
  3 42  1  0  0  0  0
  4 11  1  0  0  0  0
  4 15  1  0  0  0  0
  4 41  1  0  0  0  0
  5 16  1  0  0  0  0
  5 19  1  0  0  0  0
  5 22  1  0  0  0  0
  6 15  1  0  0  0  0
  6 17  2  0  0  0  0
  7 18  1  0  0  0  0
  7 19  2  0  0  0  0
  8 15  2  0  0  0  0
  8 23  1  0  0  0  0
  9 24  2  0  0  0  0
  9 27  1  0  0  0  0
 10 11  1  0  0  0  0
 10 12  1  0  0  0  0
 10 13  1  0  0  0  0
 10 14  1  0  0  0  0
 11 31  1  0  0  0  0
 11 32  1  0  0  0  0
 12 33  1  0  0  0  0
 12 34  1  0  0  0  0
 13 35  1  0  0  0  0
 13 36  1  0  0  0  0
 13 37  1  0  0  0  0
 14 38  1  0  0  0  0
 14 39  1  0  0  0  0
 14 40  1  0  0  0  0
 16 17  1  0  0  0  0
 16 18  2  0  0  0  0
 17 21  1  0  0  0  0
 18 20  1  0  0  0  0
 19 24  1  0  0  0  0
 20 25  2  0  0  0  0
 20 26  1  0  0  0  0
 21 23  2  0  0  0  0
 21 43  1  0  0  0  0
 22 27  2  0  0  0  0
 22 44  1  0  0  0  0
 23 45  1  0  0  0  0
 25 28  1  0  0  0  0
 25 46  1  0  0  0  0
 26 29  2  0  0  0  0
 26 47  1  0  0  0  0
 27 48  1  0  0  0  0
 28 30  2  0  0  0  0
 28 49  1  0  0  0  0
 29 30  1  0  0  0  0
 29 50  1  0  0  0  0
M  END
> <PUBCHEM_COMPOUND_CID>
49830614

> <PUBCHEM_CONFORMER_RMSD>
0.8

> <PUBCHEM_CONFORMER_DIVERSEORDER>
1
75
39
86
45
27
129
119
98
66
94
55
7
116
41
155
169
96
148
147
133
56
3
4
152
164
146
126
114
173
115
128
26
144
150
123
110
134
17
118
49
103
143
50
81
60
91
28
79
117
99
76
8
174
14
83
159
139
51
175
156
69
161
131
68
72
132
58
73
141
151
87
166
80
23
85
121
78
111
171
112
37
158
172
168
145
33
127
162
22
135
165
2
106
104
59
154
19
48
125
167
74
105
84
52
113
120
108
130
20
101
24
92
64
93
163
107
102
88
89
32
137
153
6
63
46
140
13
15
44
136
67
25
35
16
109
176
5
149
54
47
30
170
57
157
43
71
40
142
38
42
160
18
138
95
82
70
34
97
12
29
100
122
21
61
53
124
36
62
31
9
90
77
10
11
65

> <PUBCHEM_MMFF94_PARTIAL_CHARGES>
37
1 -0.21
11 0.37
12 0.28
15 0.72
16 -0.2
17 0.36
18 0.17
19 0.1
2 -0.19
20 0.05
21 -0.15
22 -0.18
23 0.16
24 0.74
25 -0.15
26 -0.15
27 0.02
28 -0.15
29 -0.15
3 -0.68
30 0.19
4 -0.87
41 0.4
42 0.4
43 0.15
44 0.15
45 0.15
46 0.15
47 0.15
48 0.15
49 0.15
5 0.33
50 0.15
6 -0.62
7 -0.57
8 -0.62
9 -0.62

> <PUBCHEM_EFFECTIVE_ROTOR_COUNT>
6

> <PUBCHEM_PHARMACOPHORE_FEATURES>
12
1 3 acceptor
1 3 donor
1 4 donor
1 6 acceptor
1 9 acceptor
3 10 13 14 hydrophobe
3 5 7 19 cation
4 4 6 8 15 cation
5 5 7 16 18 19 rings
6 20 25 26 28 29 30 rings
6 5 9 19 22 24 27 rings
6 6 8 15 17 21 23 rings

> <PUBCHEM_HEAVY_ATOM_COUNT>
30

> <PUBCHEM_ATOM_DEF_STEREO_COUNT>
0

> <PUBCHEM_ATOM_UDEF_STEREO_COUNT>
0

> <PUBCHEM_BOND_DEF_STEREO_COUNT>
0

> <PUBCHEM_BOND_UDEF_STEREO_COUNT>
0

> <PUBCHEM_ISOTOPIC_ATOM_COUNT>
0

> <PUBCHEM_COMPONENT_COUNT>
1

> <PUBCHEM_CACTVS_TAUTO_COUNT>
3

> <PUBCHEM_CONFORMER_ID>
02F85AD600000001

> <PUBCHEM_MMFF94_ENERGY>
86.0767

> <PUBCHEM_FEATURE_SELFOVERLAP>
61.014

> <PUBCHEM_SHAPE_FINGERPRINT>
11370993 144 18200584921690752256
11552529 35 17691948772428158176
11582403 64 17131827672829367997
11607047 141 16841955645226026707
12422481 6 18261384503790192424
12553582 1 17604412124898043752
12633257 1 18199464548784580760
12741549 16 17051878647758284715
12788726 201 17472149843219407247
12839892 36 18264498441580615819
13004483 165 17050471749357443142
13140716 1 17835546065147580393
13402501 40 18337957771363394926
13583140 156 16628545050715757032
14020679 6 17630879598233747360
14739800 52 17559689343383137097
14840074 17 18040709312171879076
150020 26 17830703514959036722
15064986 96 18267011774194382570
15420108 30 18342166740006870903
15484559 13 16017968393796268540
15775530 1 17539391146809750741
16110190 28 18187359991573759872
16994733 274 15985117318635618203
17913733 40 18201449060346342715
1813 80 16877942741632021564
1979834 28 18336274482862722067
20554085 129 18202010932068235049
21033648 29 18130215060410174304
22182313 1 17752482062788163909
23419403 2 17903912258499478133
23559900 14 18117014186889945439
23728640 28 18123184877424788850
3411729 13 18340208466884577977
3493558 16 17626669293211526465
5171179 24 17761478202307055533
5265222 85 18339374075446923076
5385378 56 18270691857129911033
7064713 232 18338794623701473728

> <PUBCHEM_SHAPE_MULTIPOLES>
576.23
10.91
4.83
2.22
0.59
6.01
0.43
-6.9
-9.8
2.21
1.7
1.13
-1.02
1.25

> <PUBCHEM_SHAPE_SELFOVERLAP>
1253.943

> <PUBCHEM_SHAPE_VOLUME>
317.9

> <PUBCHEM_COORDINATE_TYPE>
2
5
10

$$$$
49830616
  -OEChem-05102415013D

 52 55  0     0  0  0  0  0  0999 V2000
   -0.8902   -2.3919   -1.9748 F   0  0  0  0  0  0  0  0  0  0  0  0
    1.7764   -4.8433    1.0653 F   0  0  0  0  0  0  0  0  0  0  0  0
    5.0028   -0.7989   -0.0738 O   0  0  0  0  0  0  0  0  0  0  0  0
    6.2327    1.0853    0.1044 O   0  0  0  0  0  0  0  0  0  0  0  0
    2.6949    1.7198    0.2401 N   0  0  0  0  0  0  0  0  0  0  0  0
   -2.9704    1.0786   -0.0023 N   0  0  0  0  0  0  0  0  0  0  0  0
   -3.1930   -1.0899   -0.4810 N   0  0  0  0  0  0  0  0  0  0  0  0
    0.4540    1.1178    0.3392 N   0  0  0  0  0  0  0  0  0  0  0  0
    1.4563    2.4910    2.0472 N   0  0  0  0  0  0  0  0  0  0  0  0
   -5.4979    1.6718   -1.0107 N   0  0  0  0  0  0  0  0  0  0  0  0
    4.3665    1.0727   -1.4816 C   0  0  0  0  0  0  0  0  0  0  0  0
    2.8956    0.9992   -0.9981 C   0  0  0  0  0  0  0  0  0  0  0  0
    4.4822    0.2226   -2.7596 C   0  0  0  0  0  0  0  0  0  0  0  0
    4.7458    2.5315   -1.7897 C   0  0  0  0  0  0  0  0  0  0  0  0
   -1.8081    0.4886    0.4053 C   0  0  0  0  0  0  0  0  0  0  0  0
    5.3040    0.4796   -0.4180 C   0  0  0  0  0  0  0  0  0  0  0  0
   -1.9692   -0.8470    0.0999 C   0  0  0  0  0  0  0  0  0  0  0  0
   -3.7653    0.0894   -0.5258 C   0  0  0  0  0  0  0  0  0  0  0  0
   -0.7124    1.1962    1.0128 C   0  0  0  0  0  0  0  0  0  0  0  0
    1.4821    1.7788    0.9045 C   0  0  0  0  0  0  0  0  0  0  0  0
   -1.0044   -1.8771    0.3446 C   0  0  0  0  0  0  0  0  0  0  0  0
   -5.0692    0.4366   -1.0388 C   0  0  0  0  0  0  0  0  0  0  0  0
   -3.4259    2.3830    0.0265 C   0  0  0  0  0  0  0  0  0  0  0  0
   -0.8706    1.8927    2.1935 C   0  0  0  0  0  0  0  0  0  0  0  0
   -4.6526    2.6323   -0.4699 C   0  0  0  0  0  0  0  0  0  0  0  0
    0.2592    2.5271    2.6686 C   0  0  0  0  0  0  0  0  0  0  0  0
   -0.4909   -2.6241   -0.7157 C   0  0  0  0  0  0  0  0  0  0  0  0
   -0.5786   -2.1322    1.6482 C   0  0  0  0  0  0  0  0  0  0  0  0
   -5.9363   -0.6479   -1.6113 C   0  0  0  0  0  0  0  0  0  0  0  0
    0.4484   -3.6263   -0.4723 C   0  0  0  0  0  0  0  0  0  0  0  0
    0.3605   -3.1345    1.8917 C   0  0  0  0  0  0  0  0  0  0  0  0
    0.8740   -3.8815    0.8314 C   0  0  0  0  0  0  0  0  0  0  0  0
    2.2353    1.4121   -1.7720 H   0  0  0  0  0  0  0  0  0  0  0  0
    2.6059   -0.0498   -0.8524 H   0  0  0  0  0  0  0  0  0  0  0  0
    4.1743   -0.8151   -2.5880 H   0  0  0  0  0  0  0  0  0  0  0  0
    5.5175    0.1975   -3.1188 H   0  0  0  0  0  0  0  0  0  0  0  0
    3.8572    0.6277   -3.5633 H   0  0  0  0  0  0  0  0  0  0  0  0
    4.7399    3.1582   -0.8916 H   0  0  0  0  0  0  0  0  0  0  0  0
    5.7567    2.5893   -2.2103 H   0  0  0  0  0  0  0  0  0  0  0  0
    4.0573    2.9755   -2.5172 H   0  0  0  0  0  0  0  0  0  0  0  0
    3.4729    2.2004    0.6764 H   0  0  0  0  0  0  0  0  0  0  0  0
   -2.7921    3.1597    0.4337 H   0  0  0  0  0  0  0  0  0  0  0  0
   -1.8094    1.9432    2.7309 H   0  0  0  0  0  0  0  0  0  0  0  0
   -5.0423    3.6447   -0.4671 H   0  0  0  0  0  0  0  0  0  0  0  0
    0.2326    3.0976    3.5908 H   0  0  0  0  0  0  0  0  0  0  0  0
   -0.9718   -1.5687    2.4911 H   0  0  0  0  0  0  0  0  0  0  0  0
   -6.1340   -1.4033   -0.8453 H   0  0  0  0  0  0  0  0  0  0  0  0
   -5.4254   -1.1198   -2.4555 H   0  0  0  0  0  0  0  0  0  0  0  0
   -6.8880   -0.2350   -1.9574 H   0  0  0  0  0  0  0  0  0  0  0  0
    5.6110   -1.1457    0.6132 H   0  0  0  0  0  0  0  0  0  0  0  0
    0.8485   -4.2076   -1.2975 H   0  0  0  0  0  0  0  0  0  0  0  0
    0.6910   -3.3346    2.9066 H   0  0  0  0  0  0  0  0  0  0  0  0
  1 27  1  0  0  0  0
  2 32  1  0  0  0  0
  3 16  1  0  0  0  0
  3 50  1  0  0  0  0
  4 16  2  0  0  0  0
  5 12  1  0  0  0  0
  5 20  1  0  0  0  0
  5 41  1  0  0  0  0
  6 15  1  0  0  0  0
  6 18  1  0  0  0  0
  6 23  1  0  0  0  0
  7 17  1  0  0  0  0
  7 18  2  0  0  0  0
  8 19  2  0  0  0  0
  8 20  1  0  0  0  0
  9 20  2  0  0  0  0
  9 26  1  0  0  0  0
 10 22  2  0  0  0  0
 10 25  1  0  0  0  0
 11 12  1  0  0  0  0
 11 13  1  0  0  0  0
 11 14  1  0  0  0  0
 11 16  1  0  0  0  0
 12 33  1  0  0  0  0
 12 34  1  0  0  0  0
 13 35  1  0  0  0  0
 13 36  1  0  0  0  0
 13 37  1  0  0  0  0
 14 38  1  0  0  0  0
 14 39  1  0  0  0  0
 14 40  1  0  0  0  0
 15 17  2  0  0  0  0
 15 19  1  0  0  0  0
 17 21  1  0  0  0  0
 18 22  1  0  0  0  0
 19 24  1  0  0  0  0
 21 27  2  0  0  0  0
 21 28  1  0  0  0  0
 22 29  1  0  0  0  0
 23 25  2  0  0  0  0
 23 42  1  0  0  0  0
 24 26  2  0  0  0  0
 24 43  1  0  0  0  0
 25 44  1  0  0  0  0
 26 45  1  0  0  0  0
 27 30  1  0  0  0  0
 28 31  2  0  0  0  0
 28 46  1  0  0  0  0
 29 47  1  0  0  0  0
 29 48  1  0  0  0  0
 29 49  1  0  0  0  0
 30 32  2  0  0  0  0
 30 51  1  0  0  0  0
 31 32  1  0  0  0  0
 31 52  1  0  0  0  0
M  END
> <PUBCHEM_COMPOUND_CID>
49830616

> <PUBCHEM_CONFORMER_RMSD>
1

> <PUBCHEM_CONFORMER_DIVERSEORDER>
1
97
115
12
22
56
47
76
140
120
48
99
40
107
116
39
75
127
145
128
79
68
81
131
37
118
14
155
33
122
86
80
41
101
67
26
110
44
94
130
83
34
139
73
64
88
112
77
117
35
3
61
125
25
51
65
16
129
32
103
91
85
154
147
114
43
45
152
19
124
121
104
126
23
63
119
144
113
74
141
72
102
15
95
66
98
89
153
84
17
150
105
58
38
100
143
13
6
2
90
138
5
54
36
135
9
146
55
8
11
109
136
142
30
27
62
87
7
96
134
78
4
53
106
137
93
148
59
29
46
21
133
10
60
132
28
69
149
24
123
82
50
70
31
71
151
92
42
18
52
111
49
20
57
108

> <PUBCHEM_MMFF94_PARTIAL_CHARGES>
39
1 -0.19
10 -0.62
11 0.06
12 0.37
15 -0.2
16 0.66
17 0.17
18 0.1
19 0.36
2 -0.19
20 0.72
21 0.05
22 0.47
23 -0.18
24 -0.15
25 0.02
26 0.16
27 0.19
28 -0.15
29 0.06
3 -0.65
30 -0.15
31 -0.15
32 0.19
4 -0.57
41 0.4
42 0.15
43 0.15
44 0.15
45 0.15
46 0.15
5 -0.87
50 0.5
51 0.15
52 0.15
6 0.33
7 -0.57
8 -0.62
9 -0.62

> <PUBCHEM_EFFECTIVE_ROTOR_COUNT>
6

> <PUBCHEM_PHARMACOPHORE_FEATURES>
13
1 10 acceptor
1 3 acceptor
1 4 acceptor
1 5 donor
1 8 acceptor
3 11 13 14 hydrophobe
3 3 4 16 anion
3 6 7 18 cation
4 5 8 9 20 cation
5 6 7 15 17 18 rings
6 21 27 28 30 31 32 rings
6 6 10 18 22 23 25 rings
6 8 9 19 20 24 26 rings

> <PUBCHEM_HEAVY_ATOM_COUNT>
32

> <PUBCHEM_ATOM_DEF_STEREO_COUNT>
0

> <PUBCHEM_ATOM_UDEF_STEREO_COUNT>
0

> <PUBCHEM_BOND_DEF_STEREO_COUNT>
0

> <PUBCHEM_BOND_UDEF_STEREO_COUNT>
0

> <PUBCHEM_ISOTOPIC_ATOM_COUNT>
0

> <PUBCHEM_COMPONENT_COUNT>
1

> <PUBCHEM_CACTVS_TAUTO_COUNT>
3

> <PUBCHEM_CONFORMER_ID>
02F85AD800000001

> <PUBCHEM_MMFF94_ENERGY>
91.1353

> <PUBCHEM_FEATURE_SELFOVERLAP>
66.151

> <PUBCHEM_SHAPE_FINGERPRINT>
10190108 129 18193561301922337115
10675989 125 18339929208264765000
107951 10 17531248404286502410
11578080 2 17534656766490439977
11763715 3 12750420131760818168
12156800 1 14328001652787193582
12553582 1 17557735678660778224
12788726 201 18059588987883489192
133893 2 17903093134978911584
140371 6 17701534245426253056
14068700 675 17979912714700014114
14114207 22 18042960983332016742
14713325 29 18041293157283412817
14725015 67 17981038936402810890
14931854 50 18343587326288668916
15463212 79 17969500592539535952
15775530 1 17553197014345650721
20465049 17 18201151157188283063
20600515 1 9799147274387774979
20642791 178 18122335780002443857
21133410 230 17825704224055014387
21781051 124 18190176966091806083
22393880 68 18130210624072830421
23366157 5 17971178249994413235
23559900 14 17987511683945767200
3298306 158 18411697681750886759
4015057 19 17417258757218263024
44802255 64 17895775000960397598
474144 1 18266452105527519922
5265222 85 18265055902386776988
6669772 16 17986651861230077744
9981440 41 18260838106683441139

> <PUBCHEM_SHAPE_MULTIPOLES>
602.37
11.27
4.77
2.21
3.22
5.65
-0.34
-7.76
8.71
0.92
-1.87
1.05
-0.65
-0.89

> <PUBCHEM_SHAPE_SELFOVERLAP>
1326.353

> <PUBCHEM_SHAPE_VOLUME>
326.5

> <PUBCHEM_COORDINATE_TYPE>
2
5
10

$$$$
49830604
  -OEChem-05102415023D

 57 60  0     0  0  0  0  0  0999 V2000
    2.0224   -4.6606    0.5517 F   0  0  0  0  0  0  0  0  0  0  0  0
    4.5412   -0.0939    0.1954 N   0  0  0  0  0  0  0  0  0  0  0  0
    2.0891    2.0132    0.3002 N   0  0  0  0  0  0  0  0  0  0  0  0
   -0.0560    1.1212    0.2821 N   0  0  0  0  0  0  0  0  0  0  0  0
   -3.4378    0.6704   -0.1674 N   0  0  0  0  0  0  0  0  0  0  0  0
    0.7233    2.4647    2.1247 N   0  0  0  0  0  0  0  0  0  0  0  0
   -3.3663   -1.4624   -0.8259 N   0  0  0  0  0  0  0  0  0  0  0  0
   -6.0015    1.0053   -1.2074 N   0  0  0  0  0  0  0  0  0  0  0  0
    3.8650    1.7343   -1.4149 C   0  0  0  0  0  0  0  0  0  0  0  0
    4.9092    1.1864   -0.4031 C   0  0  0  0  0  0  0  0  0  0  0  0
    2.4080    1.4314   -0.9837 C   0  0  0  0  0  0  0  0  0  0  0  0
    4.0710    3.2591   -1.5419 C   0  0  0  0  0  0  0  0  0  0  0  0
    4.0918    1.1121   -2.8094 C   0  0  0  0  0  0  0  0  0  0  0  0
    4.8388   -1.1940   -0.7222 C   0  0  0  0  0  0  0  0  0  0  0  0
    5.2413   -0.2866    1.4657 C   0  0  0  0  0  0  0  0  0  0  0  0
    0.8652    1.8596    0.9300 C   0  0  0  0  0  0  0  0  0  0  0  0
   -2.2171    0.2027    0.2280 C   0  0  0  0  0  0  0  0  0  0  0  0
   -1.2359    0.9922    0.9236 C   0  0  0  0  0  0  0  0  0  0  0  0
   -2.1966   -1.1131   -0.1889 C   0  0  0  0  0  0  0  0  0  0  0  0
   -4.0835   -0.3663   -0.7924 C   0  0  0  0  0  0  0  0  0  0  0  0
   -1.5076    1.5616    2.1509 C   0  0  0  0  0  0  0  0  0  0  0  0
   -1.1098   -2.0269    0.0020 C   0  0  0  0  0  0  0  0  0  0  0  0
   -0.4804    2.2944    2.7098 C   0  0  0  0  0  0  0  0  0  0  0  0
   -4.0647    1.8971   -0.0511 C   0  0  0  0  0  0  0  0  0  0  0  0
   -5.4040   -0.1512   -1.3143 C   0  0  0  0  0  0  0  0  0  0  0  0
   -0.6764   -2.3357    1.2913 C   0  0  0  0  0  0  0  0  0  0  0  0
   -0.4853   -2.6080   -1.1017 C   0  0  0  0  0  0  0  0  0  0  0  0
   -5.3038    2.0222   -0.5656 C   0  0  0  0  0  0  0  0  0  0  0  0
    0.3817   -3.2253    1.4771 C   0  0  0  0  0  0  0  0  0  0  0  0
    0.5727   -3.4976   -0.9160 C   0  0  0  0  0  0  0  0  0  0  0  0
    1.0063   -3.8062    0.3734 C   0  0  0  0  0  0  0  0  0  0  0  0
    5.9143    1.1602   -0.8465 H   0  0  0  0  0  0  0  0  0  0  0  0
    4.9812    1.9265    0.4067 H   0  0  0  0  0  0  0  0  0  0  0  0
    1.7225    1.8408   -1.7379 H   0  0  0  0  0  0  0  0  0  0  0  0
    2.2288    0.3494   -0.9599 H   0  0  0  0  0  0  0  0  0  0  0  0
    5.0708    3.4846   -1.9311 H   0  0  0  0  0  0  0  0  0  0  0  0
    3.3411    3.7013   -2.2297 H   0  0  0  0  0  0  0  0  0  0  0  0
    3.9727    3.7756   -0.5815 H   0  0  0  0  0  0  0  0  0  0  0  0
    5.1548    1.0915   -3.0729 H   0  0  0  0  0  0  0  0  0  0  0  0
    3.5815    1.7037   -3.5799 H   0  0  0  0  0  0  0  0  0  0  0  0
    3.6908    0.1021   -2.9042 H   0  0  0  0  0  0  0  0  0  0  0  0
    2.7868    2.5496    0.8015 H   0  0  0  0  0  0  0  0  0  0  0  0
    5.8426   -1.1283   -1.1566 H   0  0  0  0  0  0  0  0  0  0  0  0
    4.7726   -2.1559   -0.1980 H   0  0  0  0  0  0  0  0  0  0  0  0
    4.0977   -1.2705   -1.5170 H   0  0  0  0  0  0  0  0  0  0  0  0
    4.9418   -1.2318    1.9325 H   0  0  0  0  0  0  0  0  0  0  0  0
    6.3300   -0.2928    1.3395 H   0  0  0  0  0  0  0  0  0  0  0  0
    4.9783    0.5038    2.1779 H   0  0  0  0  0  0  0  0  0  0  0  0
   -2.4556    1.4459    2.6613 H   0  0  0  0  0  0  0  0  0  0  0  0
   -0.5999    2.7778    3.6734 H   0  0  0  0  0  0  0  0  0  0  0  0
   -3.5492    2.7141    0.4361 H   0  0  0  0  0  0  0  0  0  0  0  0
   -5.9231   -0.9830   -1.8162 H   0  0  0  0  0  0  0  0  0  0  0  0
   -1.1542   -1.9015    2.1663 H   0  0  0  0  0  0  0  0  0  0  0  0
   -0.8092   -2.3768   -2.1138 H   0  0  0  0  0  0  0  0  0  0  0  0
   -5.8258    2.9706   -0.4958 H   0  0  0  0  0  0  0  0  0  0  0  0
    0.7186   -3.4671    2.4807 H   0  0  0  0  0  0  0  0  0  0  0  0
    1.0601   -3.9494   -1.7749 H   0  0  0  0  0  0  0  0  0  0  0  0
  1 31  1  0  0  0  0
  2 10  1  0  0  0  0
  2 14  1  0  0  0  0
  2 15  1  0  0  0  0
  3 11  1  0  0  0  0
  3 16  1  0  0  0  0
  3 42  1  0  0  0  0
  4 16  1  0  0  0  0
  4 18  2  0  0  0  0
  5 17  1  0  0  0  0
  5 20  1  0  0  0  0
  5 24  1  0  0  0  0
  6 16  2  0  0  0  0
  6 23  1  0  0  0  0
  7 19  1  0  0  0  0
  7 20  2  0  0  0  0
  8 25  2  0  0  0  0
  8 28  1  0  0  0  0
  9 10  1  0  0  0  0
  9 11  1  0  0  0  0
  9 12  1  0  0  0  0
  9 13  1  0  0  0  0
 10 32  1  0  0  0  0
 10 33  1  0  0  0  0
 11 34  1  0  0  0  0
 11 35  1  0  0  0  0
 12 36  1  0  0  0  0
 12 37  1  0  0  0  0
 12 38  1  0  0  0  0
 13 39  1  0  0  0  0
 13 40  1  0  0  0  0
 13 41  1  0  0  0  0
 14 43  1  0  0  0  0
 14 44  1  0  0  0  0
 14 45  1  0  0  0  0
 15 46  1  0  0  0  0
 15 47  1  0  0  0  0
 15 48  1  0  0  0  0
 17 18  1  0  0  0  0
 17 19  2  0  0  0  0
 18 21  1  0  0  0  0
 19 22  1  0  0  0  0
 20 25  1  0  0  0  0
 21 23  2  0  0  0  0
 21 49  1  0  0  0  0
 22 26  2  0  0  0  0
 22 27  1  0  0  0  0
 23 50  1  0  0  0  0
 24 28  2  0  0  0  0
 24 51  1  0  0  0  0
 25 52  1  0  0  0  0
 26 29  1  0  0  0  0
 26 53  1  0  0  0  0
 27 30  2  0  0  0  0
 27 54  1  0  0  0  0
 28 55  1  0  0  0  0
 29 31  2  0  0  0  0
 29 56  1  0  0  0  0
 30 31  1  0  0  0  0
 30 57  1  0  0  0  0
M  END
> <PUBCHEM_COMPOUND_CID>
49830604

> <PUBCHEM_CONFORMER_RMSD>
1

> <PUBCHEM_CONFORMER_DIVERSEORDER>
3
220
45
52
122
152
67
203
135
116
51
148
192
56
182
68
87
126
8
1
83
146
188
189
49
5
159
153
166
108
133
165
223
229
177
173
212
22
111
57
204
81
13
198
228
169
236
184
74
158
141
191
95
168
96
209
180
201
75
70
103
183
171
50
144
174
202
14
238
89
142
105
109
58
21
206
86
197
79
46
154
164
190
195
27
121
172
10
237
157
120
156
24
207
61
100
178
17
186
210
219
137
110
155
43
102
48
77
34
208
175
80
115
167
124
138
232
199
41
59
162
147
221
92
127
53
227
140
150
60
205
218
131
114
20
129
151
32
134
72
170
104
40
194
4
76
214
64
35
44
66
181
101
90
16
69
161
234
37
106
91
93
28
25
117
30
2
193
78
132
185
15
39
139
94
107
160
26
136
216
97
239
176
11
47
82
211
63
213
18
143
225
9
73
23
196
12
119
200
71
231
163
125
240
42
33
179
123
233
99
29
54
217
38
113
226
55
85
128
130
19
222
230
215
98
145
31
36
149
88
241
7
6
65
62
224
118
235
112
187
84

> <PUBCHEM_MMFF94_PARTIAL_CHARGES>
38
1 -0.19
10 0.27
11 0.37
14 0.27
15 0.27
16 0.72
17 -0.2
18 0.36
19 0.17
2 -0.81
20 0.1
21 -0.15
22 0.05
23 0.16
24 -0.18
25 0.47
26 -0.15
27 -0.15
28 0.02
29 -0.15
3 -0.87
30 -0.15
31 0.19
4 -0.62
42 0.4
49 0.15
5 0.33
50 0.15
51 0.15
52 0.06
53 0.15
54 0.15
55 0.15
56 0.15
57 0.15
6 -0.62
7 -0.57
8 -0.62

> <PUBCHEM_EFFECTIVE_ROTOR_COUNT>
7

> <PUBCHEM_PHARMACOPHORE_FEATURES>
11
1 2 cation
1 3 donor
1 4 acceptor
1 8 acceptor
3 5 7 20 cation
3 9 12 13 hydrophobe
4 3 4 6 16 cation
5 5 7 17 19 20 rings
6 22 26 27 29 30 31 rings
6 4 6 16 18 21 23 rings
6 5 8 20 24 25 28 rings

> <PUBCHEM_HEAVY_ATOM_COUNT>
31

> <PUBCHEM_ATOM_DEF_STEREO_COUNT>
0

> <PUBCHEM_ATOM_UDEF_STEREO_COUNT>
0

> <PUBCHEM_BOND_DEF_STEREO_COUNT>
0

> <PUBCHEM_BOND_UDEF_STEREO_COUNT>
0

> <PUBCHEM_ISOTOPIC_ATOM_COUNT>
0

> <PUBCHEM_COMPONENT_COUNT>
1

> <PUBCHEM_CACTVS_TAUTO_COUNT>
3

> <PUBCHEM_CONFORMER_ID>
02F85ACC00000003

> <PUBCHEM_MMFF94_ENERGY>
98.1216

> <PUBCHEM_FEATURE_SELFOVERLAP>
55.941

> <PUBCHEM_SHAPE_FINGERPRINT>
10190108 129 18122911095726723691
10675989 125 18412829070953501040
107951 10 17604148241463910363
11578080 2 17679614210664407385
11595378 159 9583254824700120072
12035759 4 18129102230019734251
12156800 1 14400344024631812838
12363563 72 17059232477761678508
12553582 1 17772214126072171824
12788726 201 17916603032350790720
133893 2 18048052778118138257
14713325 29 18042415788862554827
14747281 78 16227477078608960796
15183329 4 18409167714323147333
15420108 30 17047126524454365432
15775530 1 17266370736275836721
20642791 178 18334846204405364539
20715895 44 18335415738443053492
21133410 230 17753647759482806251
21781051 124 18263923418701329579
23366157 5 18116420459021695523
23559900 14 17987793158896071672
27425 322 16371009679813818173
3004659 81 18410573985863958604
3027735 51 18266462005553867684
3298306 158 18412260649079401751
340366 18 17967534609993534860
3633792 109 18411140204171668724
4015057 19 17273709843184335096
5265222 85 18265337394411481708
6138700 20 18340483366324828606
6287921 2 17554613889934447114
6669772 16 17843662590146098649

> <PUBCHEM_SHAPE_MULTIPOLES>
595.82
11.11
4.74
2.11
0.98
4.98
0.48
-6.47
-6.17
-2.27
0.73
-1.05
-1.23
-1.48

> <PUBCHEM_SHAPE_SELFOVERLAP>
1293.701

> <PUBCHEM_SHAPE_VOLUME>
329.7

> <PUBCHEM_COORDINATE_TYPE>
2
5
10

$$$$
24947488
  -OEChem-05102415023D

 53 56  0     0  0  0  0  0  0999 V2000
    0.2261    2.2870   -1.8803 F   0  0  0  0  0  0  0  0  0  0  0  0
   -2.1239    4.6431    1.4793 F   0  0  0  0  0  0  0  0  0  0  0  0
   -6.6103   -1.2369   -1.6719 O   0  0  0  0  0  0  0  0  0  0  0  0
    2.8483   -0.9494   -0.1752 N   0  0  0  0  0  0  0  0  0  0  0  0
   -2.6457   -1.9905    0.9673 N   0  0  0  0  0  0  0  0  0  0  0  0
    2.8255    1.2110   -0.7355 N   0  0  0  0  0  0  0  0  0  0  0  0
   -0.4684   -1.2241    0.7000 N   0  0  0  0  0  0  0  0  0  0  0  0
   -1.0863   -2.6041    2.5765 N   0  0  0  0  0  0  0  0  0  0  0  0
    5.2274   -1.3933   -1.5538 N   0  0  0  0  0  0  0  0  0  0  0  0
   -5.2090   -0.9323   -1.6841 C   0  0  0  0  0  0  0  0  0  0  0  0
   -4.5868   -1.5759   -0.4288 C   0  0  0  0  0  0  0  0  0  0  0  0
   -3.0914   -1.3331   -0.2394 C   0  0  0  0  0  0  0  0  0  0  0  0
   -4.6241   -1.4953   -2.9810 C   0  0  0  0  0  0  0  0  0  0  0  0
   -5.0944    0.5924   -1.6689 C   0  0  0  0  0  0  0  0  0  0  0  0
    1.7211   -0.4310    0.3958 C   0  0  0  0  0  0  0  0  0  0  0  0
    1.7291    0.9010    0.0365 C   0  0  0  0  0  0  0  0  0  0  0  0
    3.4735    0.0755   -0.8412 C   0  0  0  0  0  0  0  0  0  0  0  0
    0.7902   -1.1933    1.1847 C   0  0  0  0  0  0  0  0  0  0  0  0
   -1.3429   -1.9372    1.4350 C   0  0  0  0  0  0  0  0  0  0  0  0
    0.7361    1.8657    0.4043 C   0  0  0  0  0  0  0  0  0  0  0  0
    4.7050   -0.1943   -1.5442 C   0  0  0  0  0  0  0  0  0  0  0  0
    3.4022   -2.2153   -0.1869 C   0  0  0  0  0  0  0  0  0  0  0  0
    1.1818   -1.8335    2.3428 C   0  0  0  0  0  0  0  0  0  0  0  0
    4.5529   -2.3926   -0.8637 C   0  0  0  0  0  0  0  0  0  0  0  0
    0.0086    2.5343   -0.5802 C   0  0  0  0  0  0  0  0  0  0  0  0
    0.4978    2.1353    1.7519 C   0  0  0  0  0  0  0  0  0  0  0  0
    5.3881    0.9286   -2.2710 C   0  0  0  0  0  0  0  0  0  0  0  0
    0.1914   -2.5308    3.0037 C   0  0  0  0  0  0  0  0  0  0  0  0
   -0.9575    3.4727   -0.2172 C   0  0  0  0  0  0  0  0  0  0  0  0
   -0.4683    3.0738    2.1149 C   0  0  0  0  0  0  0  0  0  0  0  0
   -1.1958    3.7425    1.1305 C   0  0  0  0  0  0  0  0  0  0  0  0
   -4.7823   -2.6575   -0.4521 H   0  0  0  0  0  0  0  0  0  0  0  0
   -5.1291   -1.2188    0.4583 H   0  0  0  0  0  0  0  0  0  0  0  0
   -2.5333   -1.7262   -1.0956 H   0  0  0  0  0  0  0  0  0  0  0  0
   -2.8921   -0.2588   -0.1631 H   0  0  0  0  0  0  0  0  0  0  0  0
   -4.7230   -2.5862   -3.0085 H   0  0  0  0  0  0  0  0  0  0  0  0
   -3.5678   -1.2379   -3.1031 H   0  0  0  0  0  0  0  0  0  0  0  0
   -5.1679   -1.1148   -3.8535 H   0  0  0  0  0  0  0  0  0  0  0  0
   -5.5227    1.0054   -0.7486 H   0  0  0  0  0  0  0  0  0  0  0  0
   -4.0566    0.9295   -1.7513 H   0  0  0  0  0  0  0  0  0  0  0  0
   -5.6587    1.0367   -2.4973 H   0  0  0  0  0  0  0  0  0  0  0  0
   -3.3054   -2.5288    1.5174 H   0  0  0  0  0  0  0  0  0  0  0  0
   -7.0133   -0.8467   -2.4662 H   0  0  0  0  0  0  0  0  0  0  0  0
    2.9011   -3.0207    0.3336 H   0  0  0  0  0  0  0  0  0  0  0  0
    2.1934   -1.7964    2.7277 H   0  0  0  0  0  0  0  0  0  0  0  0
    5.0154   -3.3732   -0.8976 H   0  0  0  0  0  0  0  0  0  0  0  0
    1.0591    1.6330    2.5363 H   0  0  0  0  0  0  0  0  0  0  0  0
    5.6466    1.7211   -1.5628 H   0  0  0  0  0  0  0  0  0  0  0  0
    4.7171    1.3351   -3.0331 H   0  0  0  0  0  0  0  0  0  0  0  0
    6.3016    0.5724   -2.7550 H   0  0  0  0  0  0  0  0  0  0  0  0
    0.4037   -3.0645    3.9240 H   0  0  0  0  0  0  0  0  0  0  0  0
   -1.5244    3.9929   -0.9835 H   0  0  0  0  0  0  0  0  0  0  0  0
   -0.6532    3.2853    3.1639 H   0  0  0  0  0  0  0  0  0  0  0  0
  1 25  1  0  0  0  0
  2 31  1  0  0  0  0
  3 10  1  0  0  0  0
  3 43  1  0  0  0  0
  4 15  1  0  0  0  0
  4 17  1  0  0  0  0
  4 22  1  0  0  0  0
  5 12  1  0  0  0  0
  5 19  1  0  0  0  0
  5 42  1  0  0  0  0
  6 16  1  0  0  0  0
  6 17  2  0  0  0  0
  7 18  2  0  0  0  0
  7 19  1  0  0  0  0
  8 19  2  0  0  0  0
  8 28  1  0  0  0  0
  9 21  2  0  0  0  0
  9 24  1  0  0  0  0
 10 11  1  0  0  0  0
 10 13  1  0  0  0  0
 10 14  1  0  0  0  0
 11 12  1  0  0  0  0
 11 32  1  0  0  0  0
 11 33  1  0  0  0  0
 12 34  1  0  0  0  0
 12 35  1  0  0  0  0
 13 36  1  0  0  0  0
 13 37  1  0  0  0  0
 13 38  1  0  0  0  0
 14 39  1  0  0  0  0
 14 40  1  0  0  0  0
 14 41  1  0  0  0  0
 15 16  2  0  0  0  0
 15 18  1  0  0  0  0
 16 20  1  0  0  0  0
 17 21  1  0  0  0  0
 18 23  1  0  0  0  0
 20 25  2  0  0  0  0
 20 26  1  0  0  0  0
 21 27  1  0  0  0  0
 22 24  2  0  0  0  0
 22 44  1  0  0  0  0
 23 28  2  0  0  0  0
 23 45  1  0  0  0  0
 24 46  1  0  0  0  0
 25 29  1  0  0  0  0
 26 30  2  0  0  0  0
 26 47  1  0  0  0  0
 27 48  1  0  0  0  0
 27 49  1  0  0  0  0
 27 50  1  0  0  0  0
 28 51  1  0  0  0  0
 29 31  2  0  0  0  0
 29 52  1  0  0  0  0
 30 31  1  0  0  0  0
 30 53  1  0  0  0  0
M  END
> <PUBCHEM_COMPOUND_CID>
24947488

> <PUBCHEM_CONFORMER_RMSD>
1

> <PUBCHEM_CONFORMER_DIVERSEORDER>
1
43
65
113
116
26
18
119
52
68
20
83
19
114
69
95
38
22
53
87
27
45
16
75
29
106
25
85
101
112
107
66
34
57
47
2
24
104
118
4
21
74
62
37
17
5
82
41
42
59
80
64
81
33
86
92
117
72
93
105
84
50
55
71
94
77
63
7
58
102
3
40
98
78
111
100
11
79
89
115
23
13
67
56
39
10
15
9
97
46
36
96
48
88
6
31
49
76
90
30
12
51
54
109
73
91
8
108
32
103
60
110
28
35
70
61
44
14
99

> <PUBCHEM_MMFF94_PARTIAL_CHARGES>
37
1 -0.19
10 0.28
12 0.37
15 -0.2
16 0.17
17 0.1
18 0.36
19 0.72
2 -0.19
20 0.05
21 0.47
22 -0.18
23 -0.15
24 0.02
25 0.19
26 -0.15
27 0.06
28 0.16
29 -0.15
3 -0.68
30 -0.15
31 0.19
4 0.33
42 0.4
43 0.4
44 0.15
45 0.15
46 0.15
47 0.15
5 -0.87
51 0.15
52 0.15
53 0.15
6 -0.57
7 -0.62
8 -0.62
9 -0.62

> <PUBCHEM_EFFECTIVE_ROTOR_COUNT>
6

> <PUBCHEM_PHARMACOPHORE_FEATURES>
12
1 3 acceptor
1 3 donor
1 5 donor
1 7 acceptor
1 9 acceptor
3 10 13 14 hydrophobe
3 4 6 17 cation
4 5 7 8 19 cation
5 4 6 15 16 17 rings
6 20 25 26 29 30 31 rings
6 4 9 17 21 22 24 rings
6 7 8 18 19 23 28 rings

> <PUBCHEM_HEAVY_ATOM_COUNT>
31

> <PUBCHEM_ATOM_DEF_STEREO_COUNT>
0

> <PUBCHEM_ATOM_UDEF_STEREO_COUNT>
0

> <PUBCHEM_BOND_DEF_STEREO_COUNT>
0

> <PUBCHEM_BOND_UDEF_STEREO_COUNT>
0

> <PUBCHEM_ISOTOPIC_ATOM_COUNT>
0

> <PUBCHEM_COMPONENT_COUNT>
1

> <PUBCHEM_CACTVS_TAUTO_COUNT>
3

> <PUBCHEM_CONFORMER_ID>
017CAB2000000001

> <PUBCHEM_MMFF94_ENERGY>
87.0902

> <PUBCHEM_FEATURE_SELFOVERLAP>
61.014

> <PUBCHEM_SHAPE_FINGERPRINT>
10165383 225 15597845464056683088
10675989 125 17821725010132924890
11115154 58 18201725076614895985
11445158 3 17549581773212287467
12166972 35 16845011342104272015
12293681 160 18186522132946737610
12788726 201 18410858724688773202
13134695 92 18056772132907109161
13165053 182 17751947910074173716
13911987 19 17470769901119609950
13947920 24 17530968024499974564
140371 6 17827954963570042788
14114206 34 18408881811619938229
14347329 18 17095795624889250447
14400156 266 17680691637481521050
14537116 161 18338218420254223359
14931854 50 18260257543611990551
14932702 115 17756673418340899901
15210252 30 17530959215516775725
15264996 19 18266172830698289501
15297060 5 16915388685428883761
15775530 1 17251194194241379162
17138139 8 18337664226942766517
17909252 39 18202278074675522198
21049683 271 16672793895173967346
21344244 181 16837710275420608997
221357 26 18409160039733047383
23536364 44 18334018263628149655
3380486 77 17676475138989384730
46194498 28 17754747357062103463
484985 159 16268298569572820814
513532 50 18055890303433811755
5252454 2 17458888423741062151
7808743 9 16588300665522562607
81228 2 18188511137176848112

> <PUBCHEM_SHAPE_MULTIPOLES>
587.66
10.65
4.66
2.88
6.25
5.17
-0.49
-6.98
12.66
1.75
-2.78
0.99
-1.11
-1.28

> <PUBCHEM_SHAPE_SELFOVERLAP>
1286.599

> <PUBCHEM_SHAPE_VOLUME>
320.5

> <PUBCHEM_COORDINATE_TYPE>
2
5
10

$$$$
49830611
  -OEChem-05102415023D

 58 61  0     0  0  0  0  0  0999 V2000
    2.2391   -4.8110   -1.2481 F   0  0  0  0  0  0  0  0  0  0  0  0
    5.4613   -1.0862    0.5650 O   0  0  0  0  0  0  0  0  0  0  0  0
    3.3145    1.6506    0.0634 N   0  0  0  0  0  0  0  0  0  0  0  0
   -2.3636    1.2499   -0.3370 N   0  0  0  0  0  0  0  0  0  0  0  0
   -2.7196   -0.9306   -0.0206 N   0  0  0  0  0  0  0  0  0  0  0  0
    1.0756    1.1557   -0.3115 N   0  0  0  0  0  0  0  0  0  0  0  0
    2.3098    2.5787   -1.8147 N   0  0  0  0  0  0  0  0  0  0  0  0
   -4.9602    1.8966    0.4357 N   0  0  0  0  0  0  0  0  0  0  0  0
   -6.1417   -1.9407    2.6613 N   0  0  0  0  0  0  0  0  0  0  0  0
    4.7621    0.8349    1.9076 C   0  0  0  0  0  0  0  0  0  0  0  0
    3.3525    0.8531    1.2680 C   0  0  0  0  0  0  0  0  0  0  0  0
    5.8189    0.2337    0.9543 C   0  0  0  0  0  0  0  0  0  0  0  0
    4.6868   -0.0209    3.1893 C   0  0  0  0  0  0  0  0  0  0  0  0
    5.1973    2.2590    2.3000 C   0  0  0  0  0  0  0  0  0  0  0  0
   -1.1880    0.6330   -0.6571 C   0  0  0  0  0  0  0  0  0  0  0  0
   -3.2476    0.2688    0.0376 C   0  0  0  0  0  0  0  0  0  0  0  0
   -1.4324   -0.7096   -0.4543 C   0  0  0  0  0  0  0  0  0  0  0  0
    2.1837    1.8017   -0.7220 C   0  0  0  0  0  0  0  0  0  0  0  0
   -0.0065    1.3247   -1.0993 C   0  0  0  0  0  0  0  0  0  0  0  0
   -4.5847    0.6437    0.4317 C   0  0  0  0  0  0  0  0  0  0  0  0
   -5.5496   -0.4321    0.8404 C   0  0  0  0  0  0  0  0  0  0  0  0
   -2.7628    2.5730   -0.3314 C   0  0  0  0  0  0  0  0  0  0  0  0
   -0.4867   -1.7659   -0.6587 C   0  0  0  0  0  0  0  0  0  0  0  0
   -0.0085    2.0947   -2.2445 C   0  0  0  0  0  0  0  0  0  0  0  0
   -5.2056   -0.9058    2.2419 C   0  0  0  0  0  0  0  0  0  0  0  0
   -4.0253    2.8479    0.0478 C   0  0  0  0  0  0  0  0  0  0  0  0
    1.1897    2.7041   -2.5564 C   0  0  0  0  0  0  0  0  0  0  0  0
    0.0711   -1.9681   -1.9212 C   0  0  0  0  0  0  0  0  0  0  0  0
   -0.1235   -2.5924    0.4046 C   0  0  0  0  0  0  0  0  0  0  0  0
    0.9919   -2.9965   -2.1203 C   0  0  0  0  0  0  0  0  0  0  0  0
    0.7971   -3.6210    0.2056 C   0  0  0  0  0  0  0  0  0  0  0  0
    1.3549   -3.8232   -1.0569 C   0  0  0  0  0  0  0  0  0  0  0  0
    2.6310    1.2572    1.9902 H   0  0  0  0  0  0  0  0  0  0  0  0
    3.0370   -0.1730    1.0393 H   0  0  0  0  0  0  0  0  0  0  0  0
    6.7969    0.1858    1.4471 H   0  0  0  0  0  0  0  0  0  0  0  0
    5.9338    0.8374    0.0480 H   0  0  0  0  0  0  0  0  0  0  0  0
    5.6651   -0.0869    3.6786 H   0  0  0  0  0  0  0  0  0  0  0  0
    3.9840    0.4107    3.9111 H   0  0  0  0  0  0  0  0  0  0  0  0
    4.3526   -1.0417    2.9734 H   0  0  0  0  0  0  0  0  0  0  0  0
    6.1487    2.2417    2.8443 H   0  0  0  0  0  0  0  0  0  0  0  0
    5.3377    2.9025    1.4254 H   0  0  0  0  0  0  0  0  0  0  0  0
    4.4537    2.7342    2.9497 H   0  0  0  0  0  0  0  0  0  0  0  0
    4.1452    2.1370   -0.2512 H   0  0  0  0  0  0  0  0  0  0  0  0
    6.1633   -1.4102   -0.0246 H   0  0  0  0  0  0  0  0  0  0  0  0
   -5.4959   -1.2565    0.1194 H   0  0  0  0  0  0  0  0  0  0  0  0
   -6.5692   -0.0293    0.8077 H   0  0  0  0  0  0  0  0  0  0  0  0
   -2.0594    3.3427   -0.6204 H   0  0  0  0  0  0  0  0  0  0  0  0
   -0.8807    2.2181   -2.8744 H   0  0  0  0  0  0  0  0  0  0  0  0
   -5.2548   -0.0690    2.9479 H   0  0  0  0  0  0  0  0  0  0  0  0
   -4.1869   -1.3053    2.2883 H   0  0  0  0  0  0  0  0  0  0  0  0
   -4.3732    3.8753    0.0674 H   0  0  0  0  0  0  0  0  0  0  0  0
    1.2856    3.3275   -3.4390 H   0  0  0  0  0  0  0  0  0  0  0  0
   -0.2040   -1.3416   -2.7664 H   0  0  0  0  0  0  0  0  0  0  0  0
   -0.5473   -2.4476    1.3956 H   0  0  0  0  0  0  0  0  0  0  0  0
    1.4252   -3.1553   -3.1033 H   0  0  0  0  0  0  0  0  0  0  0  0
    1.0806   -4.2643    1.0333 H   0  0  0  0  0  0  0  0  0  0  0  0
   -6.0763   -2.7392    2.0312 H   0  0  0  0  0  0  0  0  0  0  0  0
   -5.8767   -2.2828    3.5840 H   0  0  0  0  0  0  0  0  0  0  0  0
  1 32  1  0  0  0  0
  2 12  1  0  0  0  0
  2 44  1  0  0  0  0
  3 11  1  0  0  0  0
  3 18  1  0  0  0  0
  3 43  1  0  0  0  0
  4 15  1  0  0  0  0
  4 16  1  0  0  0  0
  4 22  1  0  0  0  0
  5 16  2  0  0  0  0
  5 17  1  0  0  0  0
  6 18  1  0  0  0  0
  6 19  2  0  0  0  0
  7 18  2  0  0  0  0
  7 27  1  0  0  0  0
  8 20  2  0  0  0  0
  8 26  1  0  0  0  0
  9 25  1  0  0  0  0
  9 57  1  0  0  0  0
  9 58  1  0  0  0  0
 10 11  1  0  0  0  0
 10 12  1  0  0  0  0
 10 13  1  0  0  0  0
 10 14  1  0  0  0  0
 11 33  1  0  0  0  0
 11 34  1  0  0  0  0
 12 35  1  0  0  0  0
 12 36  1  0  0  0  0
 13 37  1  0  0  0  0
 13 38  1  0  0  0  0
 13 39  1  0  0  0  0
 14 40  1  0  0  0  0
 14 41  1  0  0  0  0
 14 42  1  0  0  0  0
 15 17  2  0  0  0  0
 15 19  1  0  0  0  0
 16 20  1  0  0  0  0
 17 23  1  0  0  0  0
 19 24  1  0  0  0  0
 20 21  1  0  0  0  0
 21 25  1  0  0  0  0
 21 45  1  0  0  0  0
 21 46  1  0  0  0  0
 22 26  2  0  0  0  0
 22 47  1  0  0  0  0
 23 28  2  0  0  0  0
 23 29  1  0  0  0  0
 24 27  2  0  0  0  0
 24 48  1  0  0  0  0
 25 49  1  0  0  0  0
 25 50  1  0  0  0  0
 26 51  1  0  0  0  0
 27 52  1  0  0  0  0
 28 30  1  0  0  0  0
 28 53  1  0  0  0  0
 29 31  2  0  0  0  0
 29 54  1  0  0  0  0
 30 32  2  0  0  0  0
 30 55  1  0  0  0  0
 31 32  1  0  0  0  0
 31 56  1  0  0  0  0
M  END
> <PUBCHEM_COMPOUND_CID>
49830611

> <PUBCHEM_CONFORMER_RMSD>
1

> <PUBCHEM_CONFORMER_DIVERSEORDER>
1
8
22
18
43
19
49
9
26
36
23
27
40
51
16
24
12
50
20
3
46
28
30
33
5
45
34
21
47
48
55
4
37
44
14
15
17
52
7
6
39
32
35
2
29
56
31
53
54
25
41
38
11
10
42
13

> <PUBCHEM_MMFF94_PARTIAL_CHARGES>
41
1 -0.19
11 0.37
12 0.28
15 -0.2
16 0.1
17 0.17
18 0.72
19 0.36
2 -0.68
20 0.47
21 0.06
22 -0.18
23 0.05
24 -0.15
25 0.27
26 0.02
27 0.16
28 -0.15
29 -0.15
3 -0.87
30 -0.15
31 -0.15
32 0.19
4 0.33
43 0.4
44 0.4
47 0.15
48 0.15
5 -0.57
51 0.15
52 0.15
53 0.15
54 0.15
55 0.15
56 0.15
57 0.36
58 0.36
6 -0.62
7 -0.62
8 -0.62
9 -0.99

> <PUBCHEM_EFFECTIVE_ROTOR_COUNT>
8

> <PUBCHEM_PHARMACOPHORE_FEATURES>
14
1 2 acceptor
1 2 donor
1 3 donor
1 6 acceptor
1 8 acceptor
1 9 cation
1 9 donor
3 10 13 14 hydrophobe
3 4 5 16 cation
4 3 6 7 18 cation
5 4 5 15 16 17 rings
6 23 28 29 30 31 32 rings
6 4 8 16 20 22 26 rings
6 6 7 18 19 24 27 rings

> <PUBCHEM_HEAVY_ATOM_COUNT>
32

> <PUBCHEM_ATOM_DEF_STEREO_COUNT>
0

> <PUBCHEM_ATOM_UDEF_STEREO_COUNT>
0

> <PUBCHEM_BOND_DEF_STEREO_COUNT>
0

> <PUBCHEM_BOND_UDEF_STEREO_COUNT>
0

> <PUBCHEM_ISOTOPIC_ATOM_COUNT>
0

> <PUBCHEM_COMPONENT_COUNT>
1

> <PUBCHEM_CACTVS_TAUTO_COUNT>
6

> <PUBCHEM_CONFORMER_ID>
02F85AD300000001

> <PUBCHEM_MMFF94_ENERGY>
86.2923

> <PUBCHEM_FEATURE_SELFOVERLAP>
71.165

> <PUBCHEM_SHAPE_FINGERPRINT>
10305334 12 17460855325129932305
11582403 64 16773218652695405060
12422481 6 18337099073655090498
12741549 16 16693839170115106859
12788726 201 17617662497821101134
12839892 36 18337677520203910899
13402501 40 18268426833671480158
13540713 4 18266183821265488645
14739800 52 17202777981934049881
14840074 17 18114730608381278020
14955137 171 18334013878361318288
15064986 96 18269263569950607138
15420108 30 18200296732994219687
15444296 8 16660631921716909725
15775530 1 17469863507779319772
16110190 28 18261100912244190448
16728300 4 17894900871862412017
17913733 40 18059860545522192203
1813 80 17095519565987970540
1979834 28 18410862052987500315
20505436 4 17464840238705575140
22182313 1 17827069611364252901
23559900 14 18118420462219582263
27425 322 16304331017308634460
3411729 13 18198618839621667281
5171179 24 17547834270808786661
5265222 85 18341055215941130428
7970288 3 17023167315465253264

> <PUBCHEM_SHAPE_MULTIPOLES>
610.53
12
4.71
2.64
1.21
4.59
0.78
-3.57
13.13
-1.49
-2.64
-1.56
-0.15
2.22

> <PUBCHEM_SHAPE_SELFOVERLAP>
1326.447

> <PUBCHEM_SHAPE_VOLUME>
336

> <PUBCHEM_COORDINATE_TYPE>
2
5
10

$$$$
49830609
  -OEChem-05102415023D

 56 59  0     0  0  0  0  0  0999 V2000
    2.1618   -4.7312   -0.6367 F   0  0  0  0  0  0  0  0  0  0  0  0
    5.0392   -0.4492    0.3269 O   0  0  0  0  0  0  0  0  0  0  0  0
    2.5235    1.9297   -0.2756 N   0  0  0  0  0  0  0  0  0  0  0  0
   -3.0694    0.8341    0.0055 N   0  0  0  0  0  0  0  0  0  0  0  0
    0.3409    1.1363   -0.3364 N   0  0  0  0  0  0  0  0  0  0  0  0
   -3.1134   -1.3079    0.6311 N   0  0  0  0  0  0  0  0  0  0  0  0
    1.2367    2.4686   -2.1335 N   0  0  0  0  0  0  0  0  0  0  0  0
   -5.6430    1.2817    0.9718 N   0  0  0  0  0  0  0  0  0  0  0  0
    4.2303    1.5469    1.4858 C   0  0  0  0  0  0  0  0  0  0  0  0
    2.7760    1.3160    1.0082 C   0  0  0  0  0  0  0  0  0  0  0  0
    5.2608    0.9440    0.5052 C   0  0  0  0  0  0  0  0  0  0  0  0
    4.5155    3.0519    1.6454 C   0  0  0  0  0  0  0  0  0  0  0  0
    4.3856    0.8738    2.8655 C   0  0  0  0  0  0  0  0  0  0  0  0
    1.3141    1.8409   -0.9444 C   0  0  0  0  0  0  0  0  0  0  0  0
   -1.8601    0.3165   -0.3620 C   0  0  0  0  0  0  0  0  0  0  0  0
   -0.8233    1.0703   -1.0152 C   0  0  0  0  0  0  0  0  0  0  0  0
   -1.9113   -1.0040    0.0339 C   0  0  0  0  0  0  0  0  0  0  0  0
   -3.7820   -0.1800    0.5955 C   0  0  0  0  0  0  0  0  0  0  0  0
    5.9606   -1.0092   -0.5986 C   0  0  0  0  0  0  0  0  0  0  0  0
   -0.8623   -1.9640   -0.1388 C   0  0  0  0  0  0  0  0  0  0  0  0
   -5.1130    0.0913    1.0842 C   0  0  0  0  0  0  0  0  0  0  0  0
   -1.0310    1.6692   -2.2410 C   0  0  0  0  0  0  0  0  0  0  0  0
   -3.6315    2.0910   -0.1117 C   0  0  0  0  0  0  0  0  0  0  0  0
    0.0451    2.3620   -2.7571 C   0  0  0  0  0  0  0  0  0  0  0  0
   -4.8776    2.2703    0.3666 C   0  0  0  0  0  0  0  0  0  0  0  0
   -0.4044   -2.2739   -1.4195 C   0  0  0  0  0  0  0  0  0  0  0  0
   -0.2983   -2.5886    0.9735 C   0  0  0  0  0  0  0  0  0  0  0  0
   -5.8902   -1.0204    1.7289 C   0  0  0  0  0  0  0  0  0  0  0  0
    0.6170   -3.2087   -1.5878 C   0  0  0  0  0  0  0  0  0  0  0  0
    0.7231   -3.5235    0.8054 C   0  0  0  0  0  0  0  0  0  0  0  0
    1.1808   -3.8335   -0.4752 C   0  0  0  0  0  0  0  0  0  0  0  0
    2.0800    1.7311    1.7489 H   0  0  0  0  0  0  0  0  0  0  0  0
    2.5740    0.2389    0.9464 H   0  0  0  0  0  0  0  0  0  0  0  0
    6.2754    1.0933    0.8969 H   0  0  0  0  0  0  0  0  0  0  0  0
    5.2080    1.4462   -0.4683 H   0  0  0  0  0  0  0  0  0  0  0  0
    3.7819    3.5244    2.3082 H   0  0  0  0  0  0  0  0  0  0  0  0
    5.5082    3.2187    2.0795 H   0  0  0  0  0  0  0  0  0  0  0  0
    4.4895    3.5803    0.6869 H   0  0  0  0  0  0  0  0  0  0  0  0
    3.7042    1.3179    3.6002 H   0  0  0  0  0  0  0  0  0  0  0  0
    5.4059    0.9879    3.2487 H   0  0  0  0  0  0  0  0  0  0  0  0
    4.1658   -0.1985    2.8177 H   0  0  0  0  0  0  0  0  0  0  0  0
    3.2518    2.4601   -0.7382 H   0  0  0  0  0  0  0  0  0  0  0  0
    5.8459   -0.5452   -1.5830 H   0  0  0  0  0  0  0  0  0  0  0  0
    6.9874   -0.8870   -0.2405 H   0  0  0  0  0  0  0  0  0  0  0  0
    5.7483   -2.0778   -0.6908 H   0  0  0  0  0  0  0  0  0  0  0  0
   -1.9671    1.6042   -2.7815 H   0  0  0  0  0  0  0  0  0  0  0  0
   -3.0624    2.8884   -0.5711 H   0  0  0  0  0  0  0  0  0  0  0  0
   -0.0226    2.8640   -3.7163 H   0  0  0  0  0  0  0  0  0  0  0  0
   -5.3501    3.2441    0.2948 H   0  0  0  0  0  0  0  0  0  0  0  0
   -0.8352   -1.8058   -2.3014 H   0  0  0  0  0  0  0  0  0  0  0  0
   -0.6418   -2.3572    1.9791 H   0  0  0  0  0  0  0  0  0  0  0  0
   -6.8740   -0.6652    2.0482 H   0  0  0  0  0  0  0  0  0  0  0  0
   -6.0220   -1.8387    1.0152 H   0  0  0  0  0  0  0  0  0  0  0  0
   -5.3456   -1.3915    2.6018 H   0  0  0  0  0  0  0  0  0  0  0  0
    0.9727   -3.4517   -2.5847 H   0  0  0  0  0  0  0  0  0  0  0  0
    1.1630   -4.0096    1.6712 H   0  0  0  0  0  0  0  0  0  0  0  0
  1 31  1  0  0  0  0
  2 11  1  0  0  0  0
  2 19  1  0  0  0  0
  3 10  1  0  0  0  0
  3 14  1  0  0  0  0
  3 42  1  0  0  0  0
  4 15  1  0  0  0  0
  4 18  1  0  0  0  0
  4 23  1  0  0  0  0
  5 14  1  0  0  0  0
  5 16  2  0  0  0  0
  6 17  1  0  0  0  0
  6 18  2  0  0  0  0
  7 14  2  0  0  0  0
  7 24  1  0  0  0  0
  8 21  2  0  0  0  0
  8 25  1  0  0  0  0
  9 10  1  0  0  0  0
  9 11  1  0  0  0  0
  9 12  1  0  0  0  0
  9 13  1  0  0  0  0
 10 32  1  0  0  0  0
 10 33  1  0  0  0  0
 11 34  1  0  0  0  0
 11 35  1  0  0  0  0
 12 36  1  0  0  0  0
 12 37  1  0  0  0  0
 12 38  1  0  0  0  0
 13 39  1  0  0  0  0
 13 40  1  0  0  0  0
 13 41  1  0  0  0  0
 15 16  1  0  0  0  0
 15 17  2  0  0  0  0
 16 22  1  0  0  0  0
 17 20  1  0  0  0  0
 18 21  1  0  0  0  0
 19 43  1  0  0  0  0
 19 44  1  0  0  0  0
 19 45  1  0  0  0  0
 20 26  2  0  0  0  0
 20 27  1  0  0  0  0
 21 28  1  0  0  0  0
 22 24  2  0  0  0  0
 22 46  1  0  0  0  0
 23 25  2  0  0  0  0
 23 47  1  0  0  0  0
 24 48  1  0  0  0  0
 25 49  1  0  0  0  0
 26 29  1  0  0  0  0
 26 50  1  0  0  0  0
 27 30  2  0  0  0  0
 27 51  1  0  0  0  0
 28 52  1  0  0  0  0
 28 53  1  0  0  0  0
 28 54  1  0  0  0  0
 29 31  2  0  0  0  0
 29 55  1  0  0  0  0
 30 31  1  0  0  0  0
 30 56  1  0  0  0  0
M  END
> <PUBCHEM_COMPOUND_CID>
49830609

> <PUBCHEM_CONFORMER_RMSD>
1

> <PUBCHEM_CONFORMER_DIVERSEORDER>
1
13
48
53
46
62
21
69
66
31
38
16
8
29
50
42
68
33
44
67
28
26
61
3
20
19
15
52
56
18
2
41
49
30
34
27
5
55
4
43
59
24
64
32
7
58
40
37
57
45
23
6
11
54
36
60
63
12
65
9
10
25
39
51
70
47
14
35
17
22

> <PUBCHEM_MMFF94_PARTIAL_CHARGES>
37
1 -0.19
10 0.37
11 0.28
14 0.72
15 -0.2
16 0.36
17 0.17
18 0.1
19 0.28
2 -0.56
20 0.05
21 0.47
22 -0.15
23 -0.18
24 0.16
25 0.02
26 -0.15
27 -0.15
28 0.06
29 -0.15
3 -0.87
30 -0.15
31 0.19
4 0.33
42 0.4
46 0.15
47 0.15
48 0.15
49 0.15
5 -0.62
50 0.15
51 0.15
55 0.15
56 0.15
6 -0.57
7 -0.62
8 -0.62

> <PUBCHEM_EFFECTIVE_ROTOR_COUNT>
7

> <PUBCHEM_PHARMACOPHORE_FEATURES>
11
1 2 acceptor
1 3 donor
1 5 acceptor
1 8 acceptor
3 4 6 18 cation
3 9 12 13 hydrophobe
4 3 5 7 14 cation
5 4 6 15 17 18 rings
6 20 26 27 29 30 31 rings
6 4 8 18 21 23 25 rings
6 5 7 14 16 22 24 rings

> <PUBCHEM_HEAVY_ATOM_COUNT>
31

> <PUBCHEM_ATOM_DEF_STEREO_COUNT>
0

> <PUBCHEM_ATOM_UDEF_STEREO_COUNT>
0

> <PUBCHEM_BOND_DEF_STEREO_COUNT>
0

> <PUBCHEM_BOND_UDEF_STEREO_COUNT>
0

> <PUBCHEM_ISOTOPIC_ATOM_COUNT>
0

> <PUBCHEM_COMPONENT_COUNT>
1

> <PUBCHEM_CACTVS_TAUTO_COUNT>
3

> <PUBCHEM_CONFORMER_ID>
02F85AD100000001

> <PUBCHEM_MMFF94_ENERGY>
95.0386

> <PUBCHEM_FEATURE_SELFOVERLAP>
55.94

> <PUBCHEM_SHAPE_FINGERPRINT>
10258939 38 14288423185305138988
10816530 23 17983849271175081456
11370993 144 18200304541788335680
11552529 35 17619608612391690600
11578080 2 16589700146456465551
11582403 64 17203886379432630637
12293681 160 15813098350154098444
12422481 6 18261384512327405465
12553582 1 17531792675975707384
12633257 1 18198616829545967520
12741549 16 17123653680298245195
12788726 201 17399810787237363559
12839892 36 18264497355022487707
12925494 130 18197214746468344153
13004483 165 16978414168304624375
13402501 40 18338240362978777102
13583140 156 16628264683772076000
13692114 37 18340493391116672819
14020679 6 17630598131683512457
14739800 52 17631464371617626201
14840074 17 17968370247325626724
15420108 30 18341886373237256591
15484559 13 16018530248464470572
15775530 1 17539108576779877413
16110190 28 18115586080036087812
1813 80 16950560004189313348
21033648 29 18200868586857749584
22182313 1 17824538570310057765
23419403 2 17975687291065831813
23559900 14 18116731621044302119
23728640 28 18050845821157876154
3298306 158 18120070811766177670
3411729 13 18340208475585269353
3493558 16 17769941177544200649
5171179 24 17761477111517224637
5265222 85 18338811125477645100
5385378 56 18270410390848643001

> <PUBCHEM_SHAPE_MULTIPOLES>
594.94
11.68
4.74
2.16
0.72
5.15
0.36
-5.7
-8.26
2.53
1.26
1.07
-1.19
1.83

> <PUBCHEM_SHAPE_SELFOVERLAP>
1293.418

> <PUBCHEM_SHAPE_VOLUME>
328

> <PUBCHEM_COORDINATE_TYPE>
2
5
10

$$$$
49830615
  -OEChem-05102415023D

 57 60  0     0  0  0  0  0  0999 V2000
   -0.1760   -2.3578    1.7353 F   0  0  0  0  0  0  0  0  0  0  0  0
    2.7953   -4.8655   -0.9562 F   0  0  0  0  0  0  0  0  0  0  0  0
    5.4661    2.3614    2.2455 O   0  0  0  0  0  0  0  0  0  0  0  0
   -4.8978   -0.4159    0.6800 O   0  0  0  0  0  0  0  0  0  0  0  0
   -1.8948    1.1759   -0.4601 N   0  0  0  0  0  0  0  0  0  0  0  0
    3.7694    1.6645    0.0305 N   0  0  0  0  0  0  0  0  0  0  0  0
   -2.2344   -0.9896   -0.0298 N   0  0  0  0  0  0  0  0  0  0  0  0
    1.5446    1.1237   -0.3602 N   0  0  0  0  0  0  0  0  0  0  0  0
   -4.5232    1.8377    0.2243 N   0  0  0  0  0  0  0  0  0  0  0  0
    2.7941    2.4756   -1.9154 N   0  0  0  0  0  0  0  0  0  0  0  0
    5.1753    0.9948    1.9412 C   0  0  0  0  0  0  0  0  0  0  0  0
    3.7904    0.9347    1.2788 C   0  0  0  0  0  0  0  0  0  0  0  0
   -0.7061    0.5564   -0.7210 C   0  0  0  0  0  0  0  0  0  0  0  0
   -0.9403   -0.7762   -0.4487 C   0  0  0  0  0  0  0  0  0  0  0  0
   -2.7750    0.2046   -0.0498 C   0  0  0  0  0  0  0  0  0  0  0  0
    5.1460    0.2190    3.2619 C   0  0  0  0  0  0  0  0  0  0  0  0
    6.2807    0.4453    1.0355 C   0  0  0  0  0  0  0  0  0  0  0  0
    0.4770    1.2363   -1.1774 C   0  0  0  0  0  0  0  0  0  0  0  0
    0.0215   -1.8303   -0.5754 C   0  0  0  0  0  0  0  0  0  0  0  0
   -4.1076    0.6057    0.2873 C   0  0  0  0  0  0  0  0  0  0  0  0
    2.6539    1.7588   -0.7839 C   0  0  0  0  0  0  0  0  0  0  0  0
   -2.3126    2.4940   -0.5356 C   0  0  0  0  0  0  0  0  0  0  0  0
    0.4902    1.9416   -2.3634 C   0  0  0  0  0  0  0  0  0  0  0  0
   -6.2187   -0.0205    1.0144 C   0  0  0  0  0  0  0  0  0  0  0  0
   -3.5874    2.7773   -0.1979 C   0  0  0  0  0  0  0  0  0  0  0  0
    0.3752   -2.5954    0.5361 C   0  0  0  0  0  0  0  0  0  0  0  0
    0.6049   -2.0907   -1.8155 C   0  0  0  0  0  0  0  0  0  0  0  0
    1.6881    2.5468   -2.6849 C   0  0  0  0  0  0  0  0  0  0  0  0
   -7.1786   -1.1542    0.6873 C   0  0  0  0  0  0  0  0  0  0  0  0
   -6.2704    0.3590    2.4864 C   0  0  0  0  0  0  0  0  0  0  0  0
    1.3123   -3.6206    0.4075 C   0  0  0  0  0  0  0  0  0  0  0  0
    1.5422   -3.1157   -1.9440 C   0  0  0  0  0  0  0  0  0  0  0  0
    1.8959   -3.8808   -0.8325 C   0  0  0  0  0  0  0  0  0  0  0  0
    3.0462    1.3751    1.9546 H   0  0  0  0  0  0  0  0  0  0  0  0
    3.5116   -0.1115    1.1009 H   0  0  0  0  0  0  0  0  0  0  0  0
    6.1089    0.2908    3.7807 H   0  0  0  0  0  0  0  0  0  0  0  0
    4.9176   -0.8399    3.1026 H   0  0  0  0  0  0  0  0  0  0  0  0
    4.3971    0.6380    3.9438 H   0  0  0  0  0  0  0  0  0  0  0  0
    6.0680   -0.5817    0.7215 H   0  0  0  0  0  0  0  0  0  0  0  0
    7.2455    0.4508    1.5562 H   0  0  0  0  0  0  0  0  0  0  0  0
    6.4212    1.0634    0.1428 H   0  0  0  0  0  0  0  0  0  0  0  0
    4.5867    2.1881   -0.2599 H   0  0  0  0  0  0  0  0  0  0  0  0
   -1.6117    3.2549   -0.8528 H   0  0  0  0  0  0  0  0  0  0  0  0
   -0.3702    2.0199   -3.0164 H   0  0  0  0  0  0  0  0  0  0  0  0
    6.3417    2.3954    2.6674 H   0  0  0  0  0  0  0  0  0  0  0  0
   -6.5636    0.8289    0.4109 H   0  0  0  0  0  0  0  0  0  0  0  0
   -3.9453    3.8003   -0.2432 H   0  0  0  0  0  0  0  0  0  0  0  0
    0.3377   -1.5135   -2.6976 H   0  0  0  0  0  0  0  0  0  0  0  0
    1.7954    3.1214   -3.5986 H   0  0  0  0  0  0  0  0  0  0  0  0
   -7.1221   -1.4069   -0.3771 H   0  0  0  0  0  0  0  0  0  0  0  0
   -6.9133   -2.0623    1.2401 H   0  0  0  0  0  0  0  0  0  0  0  0
   -8.2118   -0.8867    0.9289 H   0  0  0  0  0  0  0  0  0  0  0  0
   -5.5999    1.1960    2.7063 H   0  0  0  0  0  0  0  0  0  0  0  0
   -7.2837    0.6437    2.7866 H   0  0  0  0  0  0  0  0  0  0  0  0
   -5.9437   -0.4769    3.1150 H   0  0  0  0  0  0  0  0  0  0  0  0
    1.5879   -4.2161    1.2727 H   0  0  0  0  0  0  0  0  0  0  0  0
    1.9954   -3.3199   -2.9096 H   0  0  0  0  0  0  0  0  0  0  0  0
  1 26  1  0  0  0  0
  2 33  1  0  0  0  0
  3 11  1  0  0  0  0
  3 45  1  0  0  0  0
  4 20  1  0  0  0  0
  4 24  1  0  0  0  0
  5 13  1  0  0  0  0
  5 15  1  0  0  0  0
  5 22  1  0  0  0  0
  6 12  1  0  0  0  0
  6 21  1  0  0  0  0
  6 42  1  0  0  0  0
  7 14  1  0  0  0  0
  7 15  2  0  0  0  0
  8 18  2  0  0  0  0
  8 21  1  0  0  0  0
  9 20  2  0  0  0  0
  9 25  1  0  0  0  0
 10 21  2  0  0  0  0
 10 28  1  0  0  0  0
 11 12  1  0  0  0  0
 11 16  1  0  0  0  0
 11 17  1  0  0  0  0
 12 34  1  0  0  0  0
 12 35  1  0  0  0  0
 13 14  2  0  0  0  0
 13 18  1  0  0  0  0
 14 19  1  0  0  0  0
 15 20  1  0  0  0  0
 16 36  1  0  0  0  0
 16 37  1  0  0  0  0
 16 38  1  0  0  0  0
 17 39  1  0  0  0  0
 17 40  1  0  0  0  0
 17 41  1  0  0  0  0
 18 23  1  0  0  0  0
 19 26  2  0  0  0  0
 19 27  1  0  0  0  0
 22 25  2  0  0  0  0
 22 43  1  0  0  0  0
 23 28  2  0  0  0  0
 23 44  1  0  0  0  0
 24 29  1  0  0  0  0
 24 30  1  0  0  0  0
 24 46  1  0  0  0  0
 25 47  1  0  0  0  0
 26 31  1  0  0  0  0
 27 32  2  0  0  0  0
 27 48  1  0  0  0  0
 28 49  1  0  0  0  0
 29 50  1  0  0  0  0
 29 51  1  0  0  0  0
 29 52  1  0  0  0  0
 30 53  1  0  0  0  0
 30 54  1  0  0  0  0
 30 55  1  0  0  0  0
 31 33  2  0  0  0  0
 31 56  1  0  0  0  0
 32 33  1  0  0  0  0
 32 57  1  0  0  0  0
M  END
> <PUBCHEM_COMPOUND_CID>
49830615

> <PUBCHEM_CONFORMER_RMSD>
1

> <PUBCHEM_CONFORMER_DIVERSEORDER>
1
35
55
53
40
54
29
50
34
19
8
12
30
51
41
43
24
56
45
21
42
3
10
13
52
49
25
17
44
31
46
20
38
4
11
48
18
33
2
26
6
32
9
22
47
39
36
23
7
5
15
37
28
27
14
16

> <PUBCHEM_MMFF94_PARTIAL_CHARGES>
38
1 -0.19
10 -0.62
11 0.28
12 0.37
13 -0.2
14 0.17
15 0.1
18 0.36
19 0.05
2 -0.19
20 0.69
21 0.72
22 -0.18
23 -0.15
24 0.28
25 0.02
26 0.19
27 -0.15
28 0.16
3 -0.68
31 -0.15
32 -0.15
33 0.19
4 -0.43
42 0.4
43 0.15
44 0.15
45 0.4
47 0.15
48 0.15
49 0.15
5 0.33
56 0.15
57 0.15
6 -0.87
7 -0.57
8 -0.62
9 -0.62

> <PUBCHEM_EFFECTIVE_ROTOR_COUNT>
7

> <PUBCHEM_PHARMACOPHORE_FEATURES>
12
1 3 acceptor
1 3 donor
1 6 donor
1 8 acceptor
3 11 16 17 hydrophobe
3 24 29 30 hydrophobe
3 5 7 15 cation
4 6 8 10 21 cation
5 5 7 13 14 15 rings
6 19 26 27 31 32 33 rings
6 5 9 15 20 22 25 rings
6 8 10 18 21 23 28 rings

> <PUBCHEM_HEAVY_ATOM_COUNT>
33

> <PUBCHEM_ATOM_DEF_STEREO_COUNT>
0

> <PUBCHEM_ATOM_UDEF_STEREO_COUNT>
0

> <PUBCHEM_BOND_DEF_STEREO_COUNT>
0

> <PUBCHEM_BOND_UDEF_STEREO_COUNT>
0

> <PUBCHEM_ISOTOPIC_ATOM_COUNT>
0

> <PUBCHEM_COMPONENT_COUNT>
1

> <PUBCHEM_CACTVS_TAUTO_COUNT>
3

> <PUBCHEM_CONFORMER_ID>
02F85AD700000001

> <PUBCHEM_MMFF94_ENERGY>
91.5707

> <PUBCHEM_FEATURE_SELFOVERLAP>
61.014

> <PUBCHEM_SHAPE_FINGERPRINT>
11445158 3 17896598573497987885
11607047 141 16986341312977497647
12422481 6 18191286218451675594
12741549 16 16765610895451108626
12788726 201 17544764889921636806
12839892 36 18336828692700127095
13140716 1 18051426355493416557
13540713 4 18192149292251476853
13692114 37 18269557307228291663
14020679 6 17559095778586331664
14028597 1 17561091275820062971
14739800 52 17346044364049582017
15064986 96 18195791995580297850
15775530 1 17396676715568808212
16110190 28 18114168788352649168
16728300 4 17822833321626367097
16994733 274 15913330212657771377
17913733 40 18202283589392165147
1979834 28 18409732850356204594
20505436 4 17462867693644873604
20554085 129 18060426849423136568
20771845 140 18270690878257454723
21033648 29 18059000813813686858
21304304 249 17821728355590520195
21781055 127 18128842835771371568
22182313 1 18188487944152872965
22956985 138 17971470702681374202
23559900 14 18117569422987170941
23728640 28 18123456444328659354
2838139 119 15769769169847631336
3411729 13 18268986501304010008
465052 167 17313390057957063209
5104073 3 18197511627930114753
5171179 24 17547269130785924332
5265222 85 18339928220938998588
5385378 56 18201445744167522098
59755656 215 18336565866634953135
6679774 75 18260274070858070450

> <PUBCHEM_SHAPE_MULTIPOLES>
622.95
13.25
4.59
2.53
11.15
5.05
0.71
-4.71
13.17
-3.91
-2.34
-3.06
-0.88
1.47

> <PUBCHEM_SHAPE_SELFOVERLAP>
1360.177

> <PUBCHEM_SHAPE_VOLUME>
341.5

> <PUBCHEM_COORDINATE_TYPE>
2
5
10

$$$$
49830618
  -OEChem-05102415023D

 63 66  0     0  0  0  0  0  0999 V2000
    2.7038   -4.8505   -1.2142 F   0  0  0  0  0  0  0  0  0  0  0  0
    5.9302   -1.2480    0.8113 O   0  0  0  0  0  0  0  0  0  0  0  0
   -4.8613   -0.1962    0.4364 O   0  0  0  0  0  0  0  0  0  0  0  0
    3.8995    1.5591    0.2229 N   0  0  0  0  0  0  0  0  0  0  0  0
   -1.7582    1.3400   -0.4923 N   0  0  0  0  0  0  0  0  0  0  0  0
    1.6705    1.1382   -0.2789 N   0  0  0  0  0  0  0  0  0  0  0  0
   -2.1982   -0.8330   -0.2189 N   0  0  0  0  0  0  0  0  0  0  0  0
    3.0285    2.5352   -1.6971 N   0  0  0  0  0  0  0  0  0  0  0  0
   -4.3818    2.0647    0.1447 N   0  0  0  0  0  0  0  0  0  0  0  0
    5.2179    0.6818    2.1344 C   0  0  0  0  0  0  0  0  0  0  0  0
    3.8468    0.7500    1.4191 C   0  0  0  0  0  0  0  0  0  0  0  0
    6.3065    0.0565    1.2338 C   0  0  0  0  0  0  0  0  0  0  0  0
    5.6747    2.0880    2.5653 C   0  0  0  0  0  0  0  0  0  0  0  0
    5.0461   -0.1827    3.4009 C   0  0  0  0  0  0  0  0  0  0  0  0
   -0.5858    0.6898   -0.7531 C   0  0  0  0  0  0  0  0  0  0  0  0
    2.8188    1.7527   -0.6214 C   0  0  0  0  0  0  0  0  0  0  0  0
   -0.8822   -0.6468   -0.5783 C   0  0  0  0  0  0  0  0  0  0  0  0
   -2.6903    0.3815   -0.1778 C   0  0  0  0  0  0  0  0  0  0  0  0
    0.6389    1.3481   -1.1227 C   0  0  0  0  0  0  0  0  0  0  0  0
   -7.0519   -0.9792    1.0888 C   0  0  0  0  0  0  0  0  0  0  0  0
   -4.0177    0.8148    0.1396 C   0  0  0  0  0  0  0  0  0  0  0  0
   -6.1770    0.2312    0.7511 C   0  0  0  0  0  0  0  0  0  0  0  0
    0.0415   -1.7296   -0.7421 C   0  0  0  0  0  0  0  0  0  0  0  0
   -2.1207    2.6765   -0.4941 C   0  0  0  0  0  0  0  0  0  0  0  0
    0.7235    2.1281   -2.2580 C   0  0  0  0  0  0  0  0  0  0  0  0
    1.9553    2.7025   -2.4975 C   0  0  0  0  0  0  0  0  0  0  0  0
   -6.4976   -1.7501    2.2887 C   0  0  0  0  0  0  0  0  0  0  0  0
   -8.4891   -0.5390    1.3585 C   0  0  0  0  0  0  0  0  0  0  0  0
   -3.3949    2.9899   -0.1819 C   0  0  0  0  0  0  0  0  0  0  0  0
    0.6620   -1.9369   -1.9742 C   0  0  0  0  0  0  0  0  0  0  0  0
    0.3207   -2.5766    0.3305 C   0  0  0  0  0  0  0  0  0  0  0  0
    1.5612   -2.9911   -2.1337 C   0  0  0  0  0  0  0  0  0  0  0  0
    1.2199   -3.6308    0.1711 C   0  0  0  0  0  0  0  0  0  0  0  0
    1.8401   -3.8381   -1.0610 C   0  0  0  0  0  0  0  0  0  0  0  0
    3.5129   -0.2636    1.1625 H   0  0  0  0  0  0  0  0  0  0  0  0
    3.0995    1.1699    2.1051 H   0  0  0  0  0  0  0  0  0  0  0  0
    7.2540   -0.0266    1.7786 H   0  0  0  0  0  0  0  0  0  0  0  0
    6.4895    0.6644    0.3417 H   0  0  0  0  0  0  0  0  0  0  0  0
    4.9116    2.5803    3.1786 H   0  0  0  0  0  0  0  0  0  0  0  0
    6.5938    2.0360    3.1604 H   0  0  0  0  0  0  0  0  0  0  0  0
    5.8825    2.7347    1.7066 H   0  0  0  0  0  0  0  0  0  0  0  0
    4.6930   -1.1906    3.1561 H   0  0  0  0  0  0  0  0  0  0  0  0
    4.3184    0.2641    4.0879 H   0  0  0  0  0  0  0  0  0  0  0  0
    5.9936   -0.2839    3.9422 H   0  0  0  0  0  0  0  0  0  0  0  0
    4.7609    2.0221   -0.0407 H   0  0  0  0  0  0  0  0  0  0  0  0
    6.6533   -1.5886    0.2576 H   0  0  0  0  0  0  0  0  0  0  0  0
   -7.0476   -1.6628    0.2302 H   0  0  0  0  0  0  0  0  0  0  0  0
   -6.1547    0.9149    1.6099 H   0  0  0  0  0  0  0  0  0  0  0  0
   -6.6095    0.7530   -0.1123 H   0  0  0  0  0  0  0  0  0  0  0  0
   -1.3792    3.4265   -0.7358 H   0  0  0  0  0  0  0  0  0  0  0  0
   -0.1086    2.2844   -2.9332 H   0  0  0  0  0  0  0  0  0  0  0  0
   -7.1337   -2.6101    2.5240 H   0  0  0  0  0  0  0  0  0  0  0  0
   -5.4913   -2.1305    2.0849 H   0  0  0  0  0  0  0  0  0  0  0  0
   -6.4460   -1.1142    3.1791 H   0  0  0  0  0  0  0  0  0  0  0  0
   -8.9068   -0.0204    0.4891 H   0  0  0  0  0  0  0  0  0  0  0  0
   -9.1275   -1.4034    1.5695 H   0  0  0  0  0  0  0  0  0  0  0  0
   -8.5436    0.1394    2.2167 H   0  0  0  0  0  0  0  0  0  0  0  0
    2.1186    3.3305   -3.3667 H   0  0  0  0  0  0  0  0  0  0  0  0
   -3.7103    4.0278   -0.1712 H   0  0  0  0  0  0  0  0  0  0  0  0
    0.4527   -1.2946   -2.8264 H   0  0  0  0  0  0  0  0  0  0  0  0
   -0.1524   -2.4281    1.2984 H   0  0  0  0  0  0  0  0  0  0  0  0
    2.0432   -3.1538   -3.0931 H   0  0  0  0  0  0  0  0  0  0  0  0
    1.4380   -4.2900    1.0060 H   0  0  0  0  0  0  0  0  0  0  0  0
  1 34  1  0  0  0  0
  2 12  1  0  0  0  0
  2 46  1  0  0  0  0
  3 21  1  0  0  0  0
  3 22  1  0  0  0  0
  4 11  1  0  0  0  0
  4 16  1  0  0  0  0
  4 45  1  0  0  0  0
  5 15  1  0  0  0  0
  5 18  1  0  0  0  0
  5 24  1  0  0  0  0
  6 16  1  0  0  0  0
  6 19  2  0  0  0  0
  7 17  1  0  0  0  0
  7 18  2  0  0  0  0
  8 16  2  0  0  0  0
  8 26  1  0  0  0  0
  9 21  2  0  0  0  0
  9 29  1  0  0  0  0
 10 11  1  0  0  0  0
 10 12  1  0  0  0  0
 10 13  1  0  0  0  0
 10 14  1  0  0  0  0
 11 35  1  0  0  0  0
 11 36  1  0  0  0  0
 12 37  1  0  0  0  0
 12 38  1  0  0  0  0
 13 39  1  0  0  0  0
 13 40  1  0  0  0  0
 13 41  1  0  0  0  0
 14 42  1  0  0  0  0
 14 43  1  0  0  0  0
 14 44  1  0  0  0  0
 15 17  2  0  0  0  0
 15 19  1  0  0  0  0
 17 23  1  0  0  0  0
 18 21  1  0  0  0  0
 19 25  1  0  0  0  0
 20 22  1  0  0  0  0
 20 27  1  0  0  0  0
 20 28  1  0  0  0  0
 20 47  1  0  0  0  0
 22 48  1  0  0  0  0
 22 49  1  0  0  0  0
 23 30  2  0  0  0  0
 23 31  1  0  0  0  0
 24 29  2  0  0  0  0
 24 50  1  0  0  0  0
 25 26  2  0  0  0  0
 25 51  1  0  0  0  0
 26 58  1  0  0  0  0
 27 52  1  0  0  0  0
 27 53  1  0  0  0  0
 27 54  1  0  0  0  0
 28 55  1  0  0  0  0
 28 56  1  0  0  0  0
 28 57  1  0  0  0  0
 29 59  1  0  0  0  0
 30 32  1  0  0  0  0
 30 60  1  0  0  0  0
 31 33  2  0  0  0  0
 31 61  1  0  0  0  0
 32 34  2  0  0  0  0
 32 62  1  0  0  0  0
 33 34  1  0  0  0  0
 33 63  1  0  0  0  0
M  END
> <PUBCHEM_COMPOUND_CID>
49830618

> <PUBCHEM_CONFORMER_RMSD>
1

> <PUBCHEM_CONFORMER_DIVERSEORDER>
1
25
104
95
70
20
96
97
39
89
72
18
80
68
78
61
66
36
74
67
11
31
99
69
55
114
41
49
91
93
5
44
101
86
4
52
103
109
63
84
57
30
56
58
76
111
83
51
13
81
62
6
43
2
82
110
92
12
40
106
100
32
28
112
34
108
38
10
53
46
105
15
33
77
37
88
71
60
94
27
21
107
64
22
47
79
102
8
85
50
23
24
65
29
48
98
45
3
42
16
113
7
35
90
87
19
54
14
73
17
9
59
75
26

> <PUBCHEM_MMFF94_PARTIAL_CHARGES>
38
1 -0.19
11 0.37
12 0.28
15 -0.2
16 0.72
17 0.17
18 0.1
19 0.36
2 -0.68
21 0.69
22 0.28
23 0.05
24 -0.18
25 -0.15
26 0.16
29 0.02
3 -0.43
30 -0.15
31 -0.15
32 -0.15
33 -0.15
34 0.19
4 -0.87
45 0.4
46 0.4
5 0.33
50 0.15
51 0.15
58 0.15
59 0.15
6 -0.62
60 0.15
61 0.15
62 0.15
63 0.15
7 -0.57
8 -0.62
9 -0.62

> <PUBCHEM_EFFECTIVE_ROTOR_COUNT>
9

> <PUBCHEM_PHARMACOPHORE_FEATURES>
12
1 2 acceptor
1 2 donor
1 4 donor
1 6 acceptor
3 10 13 14 hydrophobe
3 20 27 28 hydrophobe
3 5 7 18 cation
4 4 6 8 16 cation
5 5 7 15 17 18 rings
6 23 30 31 32 33 34 rings
6 5 9 18 21 24 29 rings
6 6 8 16 19 25 26 rings

> <PUBCHEM_HEAVY_ATOM_COUNT>
34

> <PUBCHEM_ATOM_DEF_STEREO_COUNT>
0

> <PUBCHEM_ATOM_UDEF_STEREO_COUNT>
0

> <PUBCHEM_BOND_DEF_STEREO_COUNT>
0

> <PUBCHEM_BOND_UDEF_STEREO_COUNT>
0

> <PUBCHEM_ISOTOPIC_ATOM_COUNT>
0

> <PUBCHEM_COMPONENT_COUNT>
1

> <PUBCHEM_CACTVS_TAUTO_COUNT>
3

> <PUBCHEM_CONFORMER_ID>
02F85ADA00000001

> <PUBCHEM_MMFF94_ENERGY>
96.1313

> <PUBCHEM_FEATURE_SELFOVERLAP>
61.012

> <PUBCHEM_SHAPE_FINGERPRINT>
10050765 1 18264505992560831861
11445158 3 17970060248263962077
11607047 141 16700361641354193735
11719270 70 18335710485565157623
11963148 33 18264781029192038343
12422481 6 18192131730061326256
12522641 24 17561092362436589227
12741549 16 16550281430255571626
12788726 201 17689436413875305974
12839892 36 18410009978989503077
13140716 1 17981335796373836357
13533116 47 17313386794035574041
13540713 4 18194964042013289205
13692114 37 18270964656310418871
14028597 1 17274829029887989219
14739800 52 17274545304638689129
15064986 96 18269541750930111786
15775530 1 17326307954316744084
16728300 4 17823398466355542865
16994733 274 15410895188795922843
17913733 40 18060702788587949083
19315958 150 18201996656419337144
1979834 28 18411420604999937922
20505436 4 17536328268820072724
20554085 129 17846224396446465464
20771845 140 18271815674331250427
21033648 29 17916288598269642266
21304304 249 17967253109072966523
21792934 111 18338522946431323705
22149856 69 18198931200757853777
22182313 1 17827630362004300837
22956985 138 18045219337028724058
23559900 14 18191033292391723725
27425 322 16520220099895384276
2838139 119 15697988639928815128
465052 167 17748829652258084581
5104073 3 18127703634650837961
5171179 24 17404278725988795612
5265222 85 18341331180659403500
59755656 215 18265073434553601463
6679774 75 18261117400492439970

> <PUBCHEM_SHAPE_MULTIPOLES>
650.81
16.11
4.5
2.6
20.96
4.05
0.94
-0.51
17.49
-2.98
-2.8
-3.64
-0.16
2.16

> <PUBCHEM_SHAPE_SELFOVERLAP>
1405.173

> <PUBCHEM_SHAPE_VOLUME>
361.4

> <PUBCHEM_COORDINATE_TYPE>
2
5
10

$$$$
15981404
  -OEChem-05102415023D

 53 56  0     0  0  0  0  0  0999 V2000
    0.5570    5.8804    0.3165 F   0  0  0  0  0  0  0  0  0  0  0  0
   -5.1369    1.2072    1.4017 O   0  0  0  0  0  0  0  0  0  0  0  0
   -3.2757   -0.8210   -0.7829 N   0  0  0  0  0  0  0  0  0  0  0  0
    2.1191   -1.6098   -0.1930 N   0  0  0  0  0  0  0  0  0  0  0  0
   -0.9396   -0.6457   -0.6517 N   0  0  0  0  0  0  0  0  0  0  0  0
    3.1477    0.0369    0.9077 N   0  0  0  0  0  0  0  0  0  0  0  0
   -2.0818   -0.4068   -2.7600 N   0  0  0  0  0  0  0  0  0  0  0  0
    3.9495   -3.5042    0.7117 N   0  0  0  0  0  0  0  0  0  0  0  0
   -4.8885   -1.2026    1.0652 C   0  0  0  0  0  0  0  0  0  0  0  0
   -3.4079   -1.0572    0.6366 C   0  0  0  0  0  0  0  0  0  0  0  0
   -5.7043    0.0732    0.7586 C   0  0  0  0  0  0  0  0  0  0  0  0
   -5.5446   -2.3980    0.3496 C   0  0  0  0  0  0  0  0  0  0  0  0
   -4.9149   -1.4712    2.5843 C   0  0  0  0  0  0  0  0  0  0  0  0
    1.3961   -0.4794   -0.4670 C   0  0  0  0  0  0  0  0  0  0  0  0
   -2.0616   -0.6180   -1.4177 C   0  0  0  0  0  0  0  0  0  0  0  0
    2.0546    0.5212    0.2260 C   0  0  0  0  0  0  0  0  0  0  0  0
    0.2252   -0.4453   -1.3022 C   0  0  0  0  0  0  0  0  0  0  0  0
    3.1539   -1.2455    0.6322 C   0  0  0  0  0  0  0  0  0  0  0  0
    1.6690    1.9006    0.2493 C   0  0  0  0  0  0  0  0  0  0  0  0
    4.0822   -2.2562    1.0797 C   0  0  0  0  0  0  0  0  0  0  0  0
    1.9811   -2.9290   -0.5805 C   0  0  0  0  0  0  0  0  0  0  0  0
    0.3160   -0.2224   -2.6610 C   0  0  0  0  0  0  0  0  0  0  0  0
   -0.8820   -0.2137   -3.3459 C   0  0  0  0  0  0  0  0  0  0  0  0
    2.8846   -3.8169   -0.1237 C   0  0  0  0  0  0  0  0  0  0  0  0
    0.7851    2.3648    1.2257 C   0  0  0  0  0  0  0  0  0  0  0  0
    2.1759    2.7862   -0.7043 C   0  0  0  0  0  0  0  0  0  0  0  0
    5.2130   -1.8557    1.9834 C   0  0  0  0  0  0  0  0  0  0  0  0
    0.4097    3.7081    1.2483 C   0  0  0  0  0  0  0  0  0  0  0  0
    1.8006    4.1295   -0.6816 C   0  0  0  0  0  0  0  0  0  0  0  0
    0.9174    4.5904    0.2946 C   0  0  0  0  0  0  0  0  0  0  0  0
   -2.8611   -1.9716    0.9016 H   0  0  0  0  0  0  0  0  0  0  0  0
   -2.9412   -0.2326    1.1903 H   0  0  0  0  0  0  0  0  0  0  0  0
   -6.7426   -0.0274    1.0955 H   0  0  0  0  0  0  0  0  0  0  0  0
   -5.7350    0.2823   -0.3154 H   0  0  0  0  0  0  0  0  0  0  0  0
   -6.5598   -2.5701    0.7260 H   0  0  0  0  0  0  0  0  0  0  0  0
   -4.9720   -3.3182    0.5113 H   0  0  0  0  0  0  0  0  0  0  0  0
   -5.6237   -2.2385   -0.7306 H   0  0  0  0  0  0  0  0  0  0  0  0
   -4.4256   -2.4228    2.8227 H   0  0  0  0  0  0  0  0  0  0  0  0
   -5.9433   -1.5260    2.9589 H   0  0  0  0  0  0  0  0  0  0  0  0
   -4.3935   -0.6893    3.1468 H   0  0  0  0  0  0  0  0  0  0  0  0
   -4.0982   -0.7953   -1.3733 H   0  0  0  0  0  0  0  0  0  0  0  0
   -5.3382    1.1426    2.3503 H   0  0  0  0  0  0  0  0  0  0  0  0
    1.1604   -3.2033   -1.2308 H   0  0  0  0  0  0  0  0  0  0  0  0
    1.2583   -0.0625   -3.1702 H   0  0  0  0  0  0  0  0  0  0  0  0
   -0.9110   -0.0460   -4.4172 H   0  0  0  0  0  0  0  0  0  0  0  0
    2.8080   -4.8613   -0.4067 H   0  0  0  0  0  0  0  0  0  0  0  0
    0.3794    1.6902    1.9762 H   0  0  0  0  0  0  0  0  0  0  0  0
    2.8654    2.4433   -1.4725 H   0  0  0  0  0  0  0  0  0  0  0  0
    4.8117   -1.4258    2.9056 H   0  0  0  0  0  0  0  0  0  0  0  0
    5.8368   -1.1095    1.4831 H   0  0  0  0  0  0  0  0  0  0  0  0
    5.8291   -2.7236    2.2344 H   0  0  0  0  0  0  0  0  0  0  0  0
   -0.2781    4.0673    2.0080 H   0  0  0  0  0  0  0  0  0  0  0  0
    2.1956    4.8166   -1.4240 H   0  0  0  0  0  0  0  0  0  0  0  0
  1 30  1  0  0  0  0
  2 11  1  0  0  0  0
  2 42  1  0  0  0  0
  3 10  1  0  0  0  0
  3 15  1  0  0  0  0
  3 41  1  0  0  0  0
  4 14  1  0  0  0  0
  4 18  1  0  0  0  0
  4 21  1  0  0  0  0
  5 15  1  0  0  0  0
  5 17  2  0  0  0  0
  6 16  1  0  0  0  0
  6 18  2  0  0  0  0
  7 15  2  0  0  0  0
  7 23  1  0  0  0  0
  8 20  2  0  0  0  0
  8 24  1  0  0  0  0
  9 10  1  0  0  0  0
  9 11  1  0  0  0  0
  9 12  1  0  0  0  0
  9 13  1  0  0  0  0
 10 31  1  0  0  0  0
 10 32  1  0  0  0  0
 11 33  1  0  0  0  0
 11 34  1  0  0  0  0
 12 35  1  0  0  0  0
 12 36  1  0  0  0  0
 12 37  1  0  0  0  0
 13 38  1  0  0  0  0
 13 39  1  0  0  0  0
 13 40  1  0  0  0  0
 14 16  2  0  0  0  0
 14 17  1  0  0  0  0
 16 19  1  0  0  0  0
 17 22  1  0  0  0  0
 18 20  1  0  0  0  0
 19 25  2  0  0  0  0
 19 26  1  0  0  0  0
 20 27  1  0  0  0  0
 21 24  2  0  0  0  0
 21 43  1  0  0  0  0
 22 23  2  0  0  0  0
 22 44  1  0  0  0  0
 23 45  1  0  0  0  0
 24 46  1  0  0  0  0
 25 28  1  0  0  0  0
 25 47  1  0  0  0  0
 26 29  2  0  0  0  0
 26 48  1  0  0  0  0
 27 49  1  0  0  0  0
 27 50  1  0  0  0  0
 27 51  1  0  0  0  0
 28 30  2  0  0  0  0
 28 52  1  0  0  0  0
 29 30  1  0  0  0  0
 29 53  1  0  0  0  0
M  END
> <PUBCHEM_COMPOUND_CID>
15981404

> <PUBCHEM_CONFORMER_RMSD>
0.8

> <PUBCHEM_CONFORMER_DIVERSEORDER>
1
94
65
109
73
74
69
60
39
29
35
43
115
30
123
18
71
21
106
19
77
27
38
116
23
34
118
25
14
33
120
121
40
24
72
66
6
96
49
98
93
76
97
103
31
102
61
13
42
114
91
11
47
104
37
51
50
113
10
32
48
108
117
99
82
84
41
112
53
85
101
54
68
52
81
64
89
67
79
92
7
45
95
100
105
58
88
59
15
55
122
75
70
80
111
8
22
17
90
86
16
63
107
9
5
87
20
119
2
44
36
110
26
4
62
78
46
56
28
57
3
83
12

> <PUBCHEM_MMFF94_PARTIAL_CHARGES>
37
1 -0.19
10 0.37
11 0.28
14 -0.2
15 0.72
16 0.17
17 0.36
18 0.1
19 0.05
2 -0.68
20 0.47
21 -0.18
22 -0.15
23 0.16
24 0.02
25 -0.15
26 -0.15
27 0.06
28 -0.15
29 -0.15
3 -0.87
30 0.19
4 0.33
41 0.4
42 0.4
43 0.15
44 0.15
45 0.15
46 0.15
47 0.15
48 0.15
5 -0.62
52 0.15
53 0.15
6 -0.57
7 -0.62
8 -0.62

> <PUBCHEM_EFFECTIVE_ROTOR_COUNT>
6

> <PUBCHEM_PHARMACOPHORE_FEATURES>
12
1 2 acceptor
1 2 donor
1 3 donor
1 5 acceptor
1 8 acceptor
3 4 6 18 cation
3 9 12 13 hydrophobe
4 3 5 7 15 cation
5 4 6 14 16 18 rings
6 19 25 26 28 29 30 rings
6 4 8 18 20 21 24 rings
6 5 7 15 17 22 23 rings

> <PUBCHEM_HEAVY_ATOM_COUNT>
30

> <PUBCHEM_ATOM_DEF_STEREO_COUNT>
0

> <PUBCHEM_ATOM_UDEF_STEREO_COUNT>
0

> <PUBCHEM_BOND_DEF_STEREO_COUNT>
0

> <PUBCHEM_BOND_UDEF_STEREO_COUNT>
0

> <PUBCHEM_ISOTOPIC_ATOM_COUNT>
0

> <PUBCHEM_COMPONENT_COUNT>
1

> <PUBCHEM_CACTVS_TAUTO_COUNT>
3

> <PUBCHEM_CONFORMER_ID>
00F3DB5C00000001

> <PUBCHEM_MMFF94_ENERGY>
90.9727

> <PUBCHEM_FEATURE_SELFOVERLAP>
61.014

> <PUBCHEM_SHAPE_FINGERPRINT>
10074138 170 17471834927922300864
10165383 225 17754741851156818556
10190108 129 18341626871671668818
10794284 68 18126873541847659660
12160290 23 17554887668471830964
12293681 4 18048305657297849245
12422481 6 17488182578325628075
12633257 1 18412543236553323447
13135754 10 17908991998130752278
13583140 156 18410572916575143423
13965767 371 16988278677375580038
14950920 106 18338802329405760851
14955137 171 18338515356828336234
15142526 21 17548984807090929569
15475509 84 18264214612608736773
15842332 3 17772456039852054911
17868525 174 18410856538745669825
17909252 39 14924236975708256520
19319366 153 17838900687339420449
20739085 24 18342171189824643440
21304303 282 9264336529413912396
21344244 78 18272646853086064763
21756936 100 17336471207937582948
21860390 5 18272382978906522383
23559900 14 17240478144001577751
23845131 108 17687740962312697723
3380486 145 18054474020803872094
350125 39 17182184442789115508
3552219 110 17969521333416520134
44802255 64 11957737209978794712
484985 159 17322105629022531674
513202 73 17840872876239921278
6086070 43 18413386540965788751
621550 5 17894909590266279750
6442390 28 17470733676637603484
6703917 75 17179982133388385852
7097593 13 18342453764044411167
7288768 16 17189534707468981741

> <PUBCHEM_SHAPE_MULTIPOLES>
574.36
10.15
5.94
2.39
15.53
8.14
1.64
-9.18
-7.54
-7.18
-1.71
1.42
-0.53
-0.74

> <PUBCHEM_SHAPE_SELFOVERLAP>
1253.379

> <PUBCHEM_SHAPE_VOLUME>
315.4

> <PUBCHEM_COORDINATE_TYPE>
2
5
10

$$$$
49830607
  -OEChem-05102415023D

 44 48  0     0  0  0  0  0  0999 V2000
    3.0211   -4.3324    0.8215 F   0  0  0  0  0  0  0  0  0  0  0  0
    2.6319    2.3039    0.1071 N   0  0  0  0  0  0  0  0  0  0  0  0
    0.5334    1.2565    0.1744 N   0  0  0  0  0  0  0  0  0  0  0  0
   -2.8113    0.5292   -0.2269 N   0  0  0  0  0  0  0  0  0  0  0  0
    1.2149    2.7752    1.9171 N   0  0  0  0  0  0  0  0  0  0  0  0
   -2.5860   -1.6329   -0.7394 N   0  0  0  0  0  0  0  0  0  0  0  0
   -5.3932    0.6065   -1.2726 N   0  0  0  0  0  0  0  0  0  0  0  0
    4.3233    2.0826   -1.5879 C   0  0  0  0  0  0  0  0  0  0  0  0
    5.5396    1.4393   -0.9894 C   0  0  0  0  0  0  0  0  0  0  0  0
    5.1487    1.1326   -2.4053 C   0  0  0  0  0  0  0  0  0  0  0  0
    2.9690    1.6579   -1.1226 C   0  0  0  0  0  0  0  0  0  0  0  0
    1.3993    2.1019    0.7654 C   0  0  0  0  0  0  0  0  0  0  0  0
   -1.5597    0.1787    0.1924 C   0  0  0  0  0  0  0  0  0  0  0  0
   -0.6335    1.0867    0.8299 C   0  0  0  0  0  0  0  0  0  0  0  0
   -1.4443   -1.1574   -0.1342 C   0  0  0  0  0  0  0  0  0  0  0  0
   -3.3807   -0.5916   -0.7762 C   0  0  0  0  0  0  0  0  0  0  0  0
   -0.9448    1.7173    2.0173 C   0  0  0  0  0  0  0  0  0  0  0  0
    0.0271    2.5587    2.5192 C   0  0  0  0  0  0  0  0  0  0  0  0
   -0.2940   -1.9753    0.1120 C   0  0  0  0  0  0  0  0  0  0  0  0
   -3.5253    1.7125   -0.1907 C   0  0  0  0  0  0  0  0  0  0  0  0
   -4.7137   -0.5086   -1.3040 C   0  0  0  0  0  0  0  0  0  0  0  0
    0.1616   -2.1633    1.4169 C   0  0  0  0  0  0  0  0  0  0  0  0
    0.3700   -2.5837   -0.9531 C   0  0  0  0  0  0  0  0  0  0  0  0
   -4.7705    1.7125   -0.7053 C   0  0  0  0  0  0  0  0  0  0  0  0
    1.2815   -2.9595    1.6567 C   0  0  0  0  0  0  0  0  0  0  0  0
    1.4899   -3.3798   -0.7135 C   0  0  0  0  0  0  0  0  0  0  0  0
    1.9456   -3.5677    0.5914 C   0  0  0  0  0  0  0  0  0  0  0  0
    4.3744    3.1356   -1.8372 H   0  0  0  0  0  0  0  0  0  0  0  0
    5.4065    0.6587   -0.2503 H   0  0  0  0  0  0  0  0  0  0  0  0
    6.4117    2.0616   -0.8303 H   0  0  0  0  0  0  0  0  0  0  0  0
    5.7588    1.5487   -3.1978 H   0  0  0  0  0  0  0  0  0  0  0  0
    4.7543    0.1463   -2.6168 H   0  0  0  0  0  0  0  0  0  0  0  0
    2.9305    0.5686   -0.9951 H   0  0  0  0  0  0  0  0  0  0  0  0
    2.2417    1.9214   -1.8999 H   0  0  0  0  0  0  0  0  0  0  0  0
    3.2846    2.9378    0.5541 H   0  0  0  0  0  0  0  0  0  0  0  0
   -1.8817    1.5684    2.5395 H   0  0  0  0  0  0  0  0  0  0  0  0
   -0.1264    3.0969    3.4484 H   0  0  0  0  0  0  0  0  0  0  0  0
   -3.0698    2.5958    0.2371 H   0  0  0  0  0  0  0  0  0  0  0  0
   -5.1717   -1.4079   -1.7454 H   0  0  0  0  0  0  0  0  0  0  0  0
   -0.3458   -1.7060    2.2631 H   0  0  0  0  0  0  0  0  0  0  0  0
    0.0293   -2.4461   -1.9767 H   0  0  0  0  0  0  0  0  0  0  0  0
   -5.3598    2.6233   -0.6971 H   0  0  0  0  0  0  0  0  0  0  0  0
    1.6357   -3.1075    2.6725 H   0  0  0  0  0  0  0  0  0  0  0  0
    2.0078   -3.8530   -1.5425 H   0  0  0  0  0  0  0  0  0  0  0  0
  1 27  1  0  0  0  0
  2 11  1  0  0  0  0
  2 12  1  0  0  0  0
  2 35  1  0  0  0  0
  3 12  1  0  0  0  0
  3 14  2  0  0  0  0
  4 13  1  0  0  0  0
  4 16  1  0  0  0  0
  4 20  1  0  0  0  0
  5 12  2  0  0  0  0
  5 18  1  0  0  0  0
  6 15  1  0  0  0  0
  6 16  2  0  0  0  0
  7 21  2  0  0  0  0
  7 24  1  0  0  0  0
  8  9  1  0  0  0  0
  8 10  1  0  0  0  0
  8 11  1  0  0  0  0
  8 28  1  0  0  0  0
  9 10  1  0  0  0  0
  9 29  1  0  0  0  0
  9 30  1  0  0  0  0
 10 31  1  0  0  0  0
 10 32  1  0  0  0  0
 11 33  1  0  0  0  0
 11 34  1  0  0  0  0
 13 14  1  0  0  0  0
 13 15  2  0  0  0  0
 14 17  1  0  0  0  0
 15 19  1  0  0  0  0
 16 21  1  0  0  0  0
 17 18  2  0  0  0  0
 17 36  1  0  0  0  0
 18 37  1  0  0  0  0
 19 22  2  0  0  0  0
 19 23  1  0  0  0  0
 20 24  2  0  0  0  0
 20 38  1  0  0  0  0
 21 39  1  0  0  0  0
 22 25  1  0  0  0  0
 22 40  1  0  0  0  0
 23 26  2  0  0  0  0
 23 41  1  0  0  0  0
 24 42  1  0  0  0  0
 25 27  2  0  0  0  0
 25 43  1  0  0  0  0
 26 27  1  0  0  0  0
 26 44  1  0  0  0  0
M  END
> <PUBCHEM_COMPOUND_CID>
49830607

> <PUBCHEM_CONFORMER_RMSD>
0.8

> <PUBCHEM_CONFORMER_DIVERSEORDER>
1
17
26
2
3
39
24
30
34
18
32
42
19
25
23
8
36
11
40
16
38
28
4
9
5
22
41
37
21
35
10
13
20
33
14
12
6
29
27
31
15
7

> <PUBCHEM_MMFF94_PARTIAL_CHARGES>
42
1 -0.19
10 -0.2
11 0.46
12 0.72
13 -0.2
14 0.36
15 0.17
16 0.1
17 -0.15
18 0.16
19 0.05
2 -0.87
20 -0.18
21 0.47
22 -0.15
23 -0.15
24 0.02
25 -0.15
26 -0.15
27 0.19
28 0.1
29 0.1
3 -0.62
30 0.1
31 0.1
32 0.1
35 0.4
36 0.15
37 0.15
38 0.15
39 0.06
4 0.33
40 0.15
41 0.15
42 0.15
43 0.15
44 0.15
5 -0.62
6 -0.57
7 -0.62
8 -0.19
9 -0.2

> <PUBCHEM_EFFECTIVE_ROTOR_COUNT>
5.6

> <PUBCHEM_PHARMACOPHORE_FEATURES>
9
1 2 donor
1 3 acceptor
1 7 acceptor
3 4 6 16 cation
4 2 3 5 12 cation
5 4 6 13 15 16 rings
6 19 22 23 25 26 27 rings
6 3 5 12 14 17 18 rings
6 4 7 16 20 21 24 rings

> <PUBCHEM_HEAVY_ATOM_COUNT>
27

> <PUBCHEM_ATOM_DEF_STEREO_COUNT>
0

> <PUBCHEM_ATOM_UDEF_STEREO_COUNT>
0

> <PUBCHEM_BOND_DEF_STEREO_COUNT>
0

> <PUBCHEM_BOND_UDEF_STEREO_COUNT>
0

> <PUBCHEM_ISOTOPIC_ATOM_COUNT>
0

> <PUBCHEM_COMPONENT_COUNT>
1

> <PUBCHEM_CACTVS_TAUTO_COUNT>
3

> <PUBCHEM_CONFORMER_ID>
02F85ACF00000001

> <PUBCHEM_MMFF94_ENERGY>
79.2451

> <PUBCHEM_FEATURE_SELFOVERLAP>
45.791

> <PUBCHEM_SHAPE_FINGERPRINT>
10190108 129 18049450541825933595
10764073 3 17689482485694299435
107951 10 17459191948731275866
11578080 2 17533246131547263417
11582403 64 15691191630765117393
12035759 4 18200603475163097424
12156800 1 14185585227545875852
12363563 72 17058676133773991788
133893 2 18118136774680768464
140371 6 17767965338301669503
14114207 22 18114455670566461838
14251740 79 18270699652453731732
14713325 29 17896332483220003593
14931854 50 18343312469956924892
15210252 30 17112117552891958045
167882 2 18188493467253890310
1813 80 17979340972595025619
20465049 17 18201156680363167111
20642791 178 18123467185978446385
20642791 239 17611745604955597125
21133410 230 17535786140594016562
21781051 124 18117839030721790667
21927370 108 17686633337571308434
22393880 68 18130213978236365621
23366157 5 18115571661566949395
23419403 2 17608125050694098795
23559900 14 18198044899137631375
3298306 158 18411417358083842014
44802255 64 17750815422514757764
474144 1 18338510838090445030
513532 50 16916202477544327873
5265222 85 18119539988100111004
5282940 2 18267318529627924920
59755656 215 18265610069448647807
70634741 139 17904505226881917852
7364860 26 18128511861311645411
9925002 15 17695635052115154912

> <PUBCHEM_SHAPE_MULTIPOLES>
518.49
9.12
4.85
2.04
0.82
4.94
-0.6
-6.02
8.28
4.37
-1.9
1.08
-1.02
-1.57

> <PUBCHEM_SHAPE_SELFOVERLAP>
1153.825

> <PUBCHEM_SHAPE_VOLUME>
278.4

> <PUBCHEM_COORDINATE_TYPE>
2
5
10

$$$$
49830606
  -OEChem-05102415023D

 50 53  0     0  0  0  0  0  0999 V2000
    2.1179   -4.8132   -0.6584 F   0  0  0  0  0  0  0  0  0  0  0  0
    5.0542   -0.5241    0.0724 O   0  0  0  0  0  0  0  0  0  0  0  0
    2.5103    1.8515   -0.4131 N   0  0  0  0  0  0  0  0  0  0  0  0
   -3.0579    0.7723    0.2155 N   0  0  0  0  0  0  0  0  0  0  0  0
    0.3268    1.0621   -0.3323 N   0  0  0  0  0  0  0  0  0  0  0  0
   -3.0687   -1.3617    0.8743 N   0  0  0  0  0  0  0  0  0  0  0  0
    1.1157    2.3668   -2.1985 N   0  0  0  0  0  0  0  0  0  0  0  0
   -5.5709    1.2289    1.3299 N   0  0  0  0  0  0  0  0  0  0  0  0
    4.3185    1.4901    1.2488 C   0  0  0  0  0  0  0  0  0  0  0  0
    2.8380    1.2556    0.8620 C   0  0  0  0  0  0  0  0  0  0  0  0
    5.2879    0.8710    0.2172 C   0  0  0  0  0  0  0  0  0  0  0  0
    4.6148    2.9965    1.3695 C   0  0  0  0  0  0  0  0  0  0  0  0
    4.5548    0.8362    2.6263 C   0  0  0  0  0  0  0  0  0  0  0  0
    1.2630    1.7560   -1.0073 C   0  0  0  0  0  0  0  0  0  0  0  0
   -1.8729    0.2469   -0.2150 C   0  0  0  0  0  0  0  0  0  0  0  0
   -0.8758    0.9891   -0.9396 C   0  0  0  0  0  0  0  0  0  0  0  0
   -1.9030   -1.0683    0.2026 C   0  0  0  0  0  0  0  0  0  0  0  0
   -3.7336   -0.2325    0.8603 C   0  0  0  0  0  0  0  0  0  0  0  0
   -0.8672   -2.0329   -0.0191 C   0  0  0  0  0  0  0  0  0  0  0  0
   -1.1555    1.5710   -2.1592 C   0  0  0  0  0  0  0  0  0  0  0  0
   -3.6288    2.0275    0.1160 C   0  0  0  0  0  0  0  0  0  0  0  0
   -0.1111    2.2539   -2.7484 C   0  0  0  0  0  0  0  0  0  0  0  0
   -5.0264    0.0451    1.4205 C   0  0  0  0  0  0  0  0  0  0  0  0
   -0.4875   -2.3618   -1.3204 C   0  0  0  0  0  0  0  0  0  0  0  0
   -0.2383   -2.6430    1.0662 C   0  0  0  0  0  0  0  0  0  0  0  0
   -4.8448    2.2115    0.6666 C   0  0  0  0  0  0  0  0  0  0  0  0
    0.5209   -3.3011   -1.5364 C   0  0  0  0  0  0  0  0  0  0  0  0
    0.7700   -3.5823    0.8503 C   0  0  0  0  0  0  0  0  0  0  0  0
    1.1496   -3.9113   -0.4509 C   0  0  0  0  0  0  0  0  0  0  0  0
    2.1880    1.6829    1.6368 H   0  0  0  0  0  0  0  0  0  0  0  0
    2.6310    0.1782    0.8280 H   0  0  0  0  0  0  0  0  0  0  0  0
    6.3273    1.0064    0.5380 H   0  0  0  0  0  0  0  0  0  0  0  0
    5.1813    1.3386   -0.7671 H   0  0  0  0  0  0  0  0  0  0  0  0
    3.9225    3.4802    2.0678 H   0  0  0  0  0  0  0  0  0  0  0  0
    5.6318    3.1671    1.7412 H   0  0  0  0  0  0  0  0  0  0  0  0
    4.5327    3.5109    0.4065 H   0  0  0  0  0  0  0  0  0  0  0  0
    5.5964    0.9535    2.9461 H   0  0  0  0  0  0  0  0  0  0  0  0
    3.9193    1.2926    3.3939 H   0  0  0  0  0  0  0  0  0  0  0  0
    4.3308   -0.2360    2.6073 H   0  0  0  0  0  0  0  0  0  0  0  0
    3.2108    2.3729   -0.9261 H   0  0  0  0  0  0  0  0  0  0  0  0
    5.6947   -0.8548   -0.5801 H   0  0  0  0  0  0  0  0  0  0  0  0
   -2.1223    1.5004   -2.6420 H   0  0  0  0  0  0  0  0  0  0  0  0
   -3.0894    2.8191   -0.3872 H   0  0  0  0  0  0  0  0  0  0  0  0
   -0.2352    2.7425   -3.7089 H   0  0  0  0  0  0  0  0  0  0  0  0
   -5.5697   -0.7611    1.9384 H   0  0  0  0  0  0  0  0  0  0  0  0
   -0.9699   -1.9053   -2.1815 H   0  0  0  0  0  0  0  0  0  0  0  0
   -0.5205   -2.3967    2.0871 H   0  0  0  0  0  0  0  0  0  0  0  0
   -5.3228    3.1837    0.6110 H   0  0  0  0  0  0  0  0  0  0  0  0
    0.8158   -3.5588   -2.5493 H   0  0  0  0  0  0  0  0  0  0  0  0
    1.2604   -4.0570    1.6950 H   0  0  0  0  0  0  0  0  0  0  0  0
  1 29  1  0  0  0  0
  2 11  1  0  0  0  0
  2 41  1  0  0  0  0
  3 10  1  0  0  0  0
  3 14  1  0  0  0  0
  3 40  1  0  0  0  0
  4 15  1  0  0  0  0
  4 18  1  0  0  0  0
  4 21  1  0  0  0  0
  5 14  1  0  0  0  0
  5 16  2  0  0  0  0
  6 17  1  0  0  0  0
  6 18  2  0  0  0  0
  7 14  2  0  0  0  0
  7 22  1  0  0  0  0
  8 23  2  0  0  0  0
  8 26  1  0  0  0  0
  9 10  1  0  0  0  0
  9 11  1  0  0  0  0
  9 12  1  0  0  0  0
  9 13  1  0  0  0  0
 10 30  1  0  0  0  0
 10 31  1  0  0  0  0
 11 32  1  0  0  0  0
 11 33  1  0  0  0  0
 12 34  1  0  0  0  0
 12 35  1  0  0  0  0
 12 36  1  0  0  0  0
 13 37  1  0  0  0  0
 13 38  1  0  0  0  0
 13 39  1  0  0  0  0
 15 16  1  0  0  0  0
 15 17  2  0  0  0  0
 16 20  1  0  0  0  0
 17 19  1  0  0  0  0
 18 23  1  0  0  0  0
 19 24  2  0  0  0  0
 19 25  1  0  0  0  0
 20 22  2  0  0  0  0
 20 42  1  0  0  0  0
 21 26  2  0  0  0  0
 21 43  1  0  0  0  0
 22 44  1  0  0  0  0
 23 45  1  0  0  0  0
 24 27  1  0  0  0  0
 24 46  1  0  0  0  0
 25 28  2  0  0  0  0
 25 47  1  0  0  0  0
 26 48  1  0  0  0  0
 27 29  2  0  0  0  0
 27 49  1  0  0  0  0
 28 29  1  0  0  0  0
 28 50  1  0  0  0  0
M  END
> <PUBCHEM_COMPOUND_CID>
49830606

> <PUBCHEM_CONFORMER_RMSD>
0.8

> <PUBCHEM_CONFORMER_DIVERSEORDER>
1
30
158
58
42
92
167
146
106
118
181
54
45
59
195
24
67
183
152
93
190
139
78
105
75
53
15
14
51
102
172
79
89
44
138
182
135
107
21
16
99
173
153
156
188
137
36
9
33
176
140
180
185
175
189
141
98
193
29
8
56
129
191
61
41
132
86
12
117
7
6
64
186
151
34
171
123
112
28
147
73
125
194
57
164
101
96
128
43
74
168
142
3
187
145
114
76
116
100
157
122
2
179
162
94
91
87
115
110
192
26
17
143
130
174
119
31
120
85
133
165
40
127
104
32
97
50
134
196
82
136
184
11
23
103
154
121
95
13
71
150
65
161
111
5
131
159
124
90
72
22
155
20
163
4
88
178
177
18
148
160
108
47
27
55
80
126
81
169
70
48
113
66
39
84
109
49
170
35
10
166
144
52
60
68
37
62
38
83
25
149
63
77
69
46
19

> <PUBCHEM_MMFF94_PARTIAL_CHARGES>
37
1 -0.19
10 0.37
11 0.28
14 0.72
15 -0.2
16 0.36
17 0.17
18 0.1
19 0.05
2 -0.68
20 -0.15
21 -0.18
22 0.16
23 0.47
24 -0.15
25 -0.15
26 0.02
27 -0.15
28 -0.15
29 0.19
3 -0.87
4 0.33
40 0.4
41 0.4
42 0.15
43 0.15
44 0.15
45 0.06
46 0.15
47 0.15
48 0.15
49 0.15
5 -0.62
50 0.15
6 -0.57
7 -0.62
8 -0.62

> <PUBCHEM_EFFECTIVE_ROTOR_COUNT>
6

> <PUBCHEM_PHARMACOPHORE_FEATURES>
12
1 2 acceptor
1 2 donor
1 3 donor
1 5 acceptor
1 8 acceptor
3 4 6 18 cation
3 9 12 13 hydrophobe
4 3 5 7 14 cation
5 4 6 15 17 18 rings
6 19 24 25 27 28 29 rings
6 4 8 18 21 23 26 rings
6 5 7 14 16 20 22 rings

> <PUBCHEM_HEAVY_ATOM_COUNT>
29

> <PUBCHEM_ATOM_DEF_STEREO_COUNT>
0

> <PUBCHEM_ATOM_UDEF_STEREO_COUNT>
0

> <PUBCHEM_BOND_DEF_STEREO_COUNT>
0

> <PUBCHEM_BOND_UDEF_STEREO_COUNT>
0

> <PUBCHEM_ISOTOPIC_ATOM_COUNT>
0

> <PUBCHEM_COMPONENT_COUNT>
1

> <PUBCHEM_CACTVS_TAUTO_COUNT>
3

> <PUBCHEM_CONFORMER_ID>
02F85ACE00000001

> <PUBCHEM_MMFF94_ENERGY>
85.932

> <PUBCHEM_FEATURE_SELFOVERLAP>
61.015

> <PUBCHEM_SHAPE_FINGERPRINT>
11370993 144 18200025274482805000
11552529 35 17691670604476084152
11582403 64 17203325615612268685
11607047 141 16984662346084973387
11725454 13 17060342945987929761
12156800 1 15361407287279808914
12422481 6 18188202109272757568
12553582 1 17532356747005237776
12633257 1 18268691970349815496
12741549 16 17195150514763325299
12788726 201 17472152042332301023
12839892 36 18264500653515251059
13004483 165 17050193577305554543
13402501 40 18337678503947107390
13583140 156 16700326667256004904
14020679 6 17774151456506610344
14178342 30 18335995250254773455
14739800 52 17630899209682285377
14840074 17 17967529120940973036
14932702 115 17252043635582192620
150020 26 17901919991175754818
15420108 30 18341608196816534655
15484559 13 16090027100104099612
15775530 1 17538267454663817269
16110190 28 18115023125835159096
1813 80 16805323305610378868
20554085 129 18201169801462447609
21033648 29 18201714111109975632
21304253 13 17549549505106167657
22182313 1 17751639849908516637
23419403 2 17903070041319627837
23559900 14 18057351511295606884
23728640 28 18050849115418936706
3411729 13 18339929195310473249
3493558 16 17411340918916544801
352729 6 17901127505258745699
463206 1 16102470741668866906
5171179 24 17832975054136569045
5265222 85 18267039413079214868
5385378 56 18269850735129876033
7064713 232 18338233881250479320

> <PUBCHEM_SHAPE_MULTIPOLES>
553.78
9.94
4.96
2.11
2.49
6.57
0.68
-8.35
-7.85
2.3
1.3
0.66
-1.14
0.81

> <PUBCHEM_SHAPE_SELFOVERLAP>
1214.893

> <PUBCHEM_SHAPE_VOLUME>
302.1

> <PUBCHEM_COORDINATE_TYPE>
2
5
10

$$$$
16050450
  -OEChem-05102415023D

 53 56  0     0  0  0  0  0  0999 V2000
    0.2877    1.5445    2.0394 F   0  0  0  0  0  0  0  0  0  0  0  0
    0.5823    5.8347    0.0730 F   0  0  0  0  0  0  0  0  0  0  0  0
   -5.1375    1.2183    1.3131 O   0  0  0  0  0  0  0  0  0  0  0  0
   -3.2921   -0.8793   -0.8188 N   0  0  0  0  0  0  0  0  0  0  0  0
    2.1008   -1.6761   -0.2202 N   0  0  0  0  0  0  0  0  0  0  0  0
   -0.9548   -0.7113   -0.6979 N   0  0  0  0  0  0  0  0  0  0  0  0
    3.1399   -0.0043    0.8321 N   0  0  0  0  0  0  0  0  0  0  0  0
   -2.1010   -0.5262   -2.8096 N   0  0  0  0  0  0  0  0  0  0  0  0
    3.9249   -3.5533    0.7320 N   0  0  0  0  0  0  0  0  0  0  0  0
   -4.9019   -1.2012    1.0430 C   0  0  0  0  0  0  0  0  0  0  0  0
   -3.4219   -1.0753    0.6070 C   0  0  0  0  0  0  0  0  0  0  0  0
   -5.7122    0.0696    0.7030 C   0  0  0  0  0  0  0  0  0  0  0  0
   -5.5659   -2.4127    0.3626 C   0  0  0  0  0  0  0  0  0  0  0  0
   -4.9258   -1.4274    2.5692 C   0  0  0  0  0  0  0  0  0  0  0  0
    1.3823   -0.5504   -0.5234 C   0  0  0  0  0  0  0  0  0  0  0  0
   -2.0786   -0.7001   -1.4619 C   0  0  0  0  0  0  0  0  0  0  0  0
    2.0473    0.4660    0.1400 C   0  0  0  0  0  0  0  0  0  0  0  0
    0.2094   -0.5338   -1.3565 C   0  0  0  0  0  0  0  0  0  0  0  0
    3.1395   -1.2939    0.5920 C   0  0  0  0  0  0  0  0  0  0  0  0
    1.6682    1.8473    0.1261 C   0  0  0  0  0  0  0  0  0  0  0  0
    4.0642   -2.2963    1.0651 C   0  0  0  0  0  0  0  0  0  0  0  0
    1.9557   -3.0049   -0.5707 C   0  0  0  0  0  0  0  0  0  0  0  0
    0.2979   -0.3489   -2.7210 C   0  0  0  0  0  0  0  0  0  0  0  0
   -0.9017   -0.3544   -3.4033 C   0  0  0  0  0  0  0  0  0  0  0  0
    2.8563   -3.8841   -0.0917 C   0  0  0  0  0  0  0  0  0  0  0  0
    0.7889    2.3476    1.0894 C   0  0  0  0  0  0  0  0  0  0  0  0
    2.1791    2.7002   -0.8551 C   0  0  0  0  0  0  0  0  0  0  0  0
    5.1992   -1.8762    1.9546 C   0  0  0  0  0  0  0  0  0  0  0  0
    0.4224    3.6935    1.0713 C   0  0  0  0  0  0  0  0  0  0  0  0
    1.8127    4.0459   -0.8731 C   0  0  0  0  0  0  0  0  0  0  0  0
    0.9343    4.5426    0.0902 C   0  0  0  0  0  0  0  0  0  0  0  0
   -2.8789   -1.9846    0.8961 H   0  0  0  0  0  0  0  0  0  0  0  0
   -2.9496   -0.2381    1.1365 H   0  0  0  0  0  0  0  0  0  0  0  0
   -6.7501   -0.0163    1.0452 H   0  0  0  0  0  0  0  0  0  0  0  0
   -5.7448    0.2490   -0.3762 H   0  0  0  0  0  0  0  0  0  0  0  0
   -6.5809   -2.5692    0.7461 H   0  0  0  0  0  0  0  0  0  0  0  0
   -4.9974   -3.3309    0.5483 H   0  0  0  0  0  0  0  0  0  0  0  0
   -5.6469   -2.2828   -0.7215 H   0  0  0  0  0  0  0  0  0  0  0  0
   -4.4407   -2.3745    2.8326 H   0  0  0  0  0  0  0  0  0  0  0  0
   -5.9535   -1.4665    2.9475 H   0  0  0  0  0  0  0  0  0  0  0  0
   -4.3990   -0.6328    3.1084 H   0  0  0  0  0  0  0  0  0  0  0  0
   -4.1159   -0.8660   -1.4078 H   0  0  0  0  0  0  0  0  0  0  0  0
   -5.3366    1.1810    2.2635 H   0  0  0  0  0  0  0  0  0  0  0  0
    1.1319   -3.2932   -1.2111 H   0  0  0  0  0  0  0  0  0  0  0  0
    1.2397   -0.2072   -3.2365 H   0  0  0  0  0  0  0  0  0  0  0  0
   -0.9324   -0.2164   -4.4787 H   0  0  0  0  0  0  0  0  0  0  0  0
    2.7741   -4.9356   -0.3455 H   0  0  0  0  0  0  0  0  0  0  0  0
    2.8648    2.3295   -1.6136 H   0  0  0  0  0  0  0  0  0  0  0  0
    4.8023   -1.4189    2.8655 H   0  0  0  0  0  0  0  0  0  0  0  0
    5.8253   -1.1472    1.4321 H   0  0  0  0  0  0  0  0  0  0  0  0
    5.8118   -2.7397    2.2281 H   0  0  0  0  0  0  0  0  0  0  0  0
   -0.2616    4.0800    1.8209 H   0  0  0  0  0  0  0  0  0  0  0  0
    2.2108    4.7074   -1.6368 H   0  0  0  0  0  0  0  0  0  0  0  0
  1 26  1  0  0  0  0
  2 31  1  0  0  0  0
  3 12  1  0  0  0  0
  3 43  1  0  0  0  0
  4 11  1  0  0  0  0
  4 16  1  0  0  0  0
  4 42  1  0  0  0  0
  5 15  1  0  0  0  0
  5 19  1  0  0  0  0
  5 22  1  0  0  0  0
  6 16  1  0  0  0  0
  6 18  2  0  0  0  0
  7 17  1  0  0  0  0
  7 19  2  0  0  0  0
  8 16  2  0  0  0  0
  8 24  1  0  0  0  0
  9 21  2  0  0  0  0
  9 25  1  0  0  0  0
 10 11  1  0  0  0  0
 10 12  1  0  0  0  0
 10 13  1  0  0  0  0
 10 14  1  0  0  0  0
 11 32  1  0  0  0  0
 11 33  1  0  0  0  0
 12 34  1  0  0  0  0
 12 35  1  0  0  0  0
 13 36  1  0  0  0  0
 13 37  1  0  0  0  0
 13 38  1  0  0  0  0
 14 39  1  0  0  0  0
 14 40  1  0  0  0  0
 14 41  1  0  0  0  0
 15 17  2  0  0  0  0
 15 18  1  0  0  0  0
 17 20  1  0  0  0  0
 18 23  1  0  0  0  0
 19 21  1  0  0  0  0
 20 26  2  0  0  0  0
 20 27  1  0  0  0  0
 21 28  1  0  0  0  0
 22 25  2  0  0  0  0
 22 44  1  0  0  0  0
 23 24  2  0  0  0  0
 23 45  1  0  0  0  0
 24 46  1  0  0  0  0
 25 47  1  0  0  0  0
 26 29  1  0  0  0  0
 27 30  2  0  0  0  0
 27 48  1  0  0  0  0
 28 49  1  0  0  0  0
 28 50  1  0  0  0  0
 28 51  1  0  0  0  0
 29 31  2  0  0  0  0
 29 52  1  0  0  0  0
 30 31  1  0  0  0  0
 30 53  1  0  0  0  0
M  END
> <PUBCHEM_COMPOUND_CID>
16050450

> <PUBCHEM_CONFORMER_RMSD>
0.8

> <PUBCHEM_CONFORMER_DIVERSEORDER>
1
226
87
83
202
22
198
139
50
40
168
199
232
243
72
14
20
48
222
179
26
24
173
47
71
68
34
91
142
236
66
85
183
53
21
249
185
209
151
144
10
145
116
196
161
59
268
54
223
60
234
260
227
46
235
245
62
219
264
25
67
55
73
136
79
204
197
70
203
143
101
11
93
69
118
157
52
253
257
95
13
160
155
113
125
132
254
75
43
217
241
112
256
233
106
263
224
262
265
146
154
104
18
103
213
206
56
147
49
250
133
31
57
258
114
244
216
107
97
58
248
111
246
8
89
134
247
149
86
119
64
163
33
44
37
90
96
120
17
148
99
239
19
180
105
35
229
186
270
225
207
9
165
172
169
238
251
94
231
117
193
51
220
208
162
23
39
266
205
98
150
84
170
45
228
188
81
259
76
211
135
63
171
153
201
230
41
178
156
158
252
65
82
27
167
210
182
242
255
129
191
137
212
36
189
164
190
131
28
42
267
140
128
200
166
187
108
269
174
177
159
130
77
124
12
237
194
102
184
38
218
61
92
3
100
109
215
240
214
123
88
110
192
74
15
175
4
32
127
16
181
29
176
122
30
138
115
221
195
261
141
152
121
126
7
80
2
78
5
6

> <PUBCHEM_MMFF94_PARTIAL_CHARGES>
37
1 -0.19
11 0.37
12 0.28
15 -0.2
16 0.72
17 0.17
18 0.36
19 0.1
2 -0.19
20 0.05
21 0.47
22 -0.18
23 -0.15
24 0.16
25 0.02
26 0.19
27 -0.15
28 0.06
29 -0.15
3 -0.68
30 -0.15
31 0.19
4 -0.87
42 0.4
43 0.4
44 0.15
45 0.15
46 0.15
47 0.15
48 0.15
5 0.33
52 0.15
53 0.15
6 -0.62
7 -0.57
8 -0.62
9 -0.62

> <PUBCHEM_EFFECTIVE_ROTOR_COUNT>
6

> <PUBCHEM_PHARMACOPHORE_FEATURES>
12
1 3 acceptor
1 3 donor
1 4 donor
1 6 acceptor
1 9 acceptor
3 10 13 14 hydrophobe
3 5 7 19 cation
4 4 6 8 16 cation
5 5 7 15 17 19 rings
6 20 26 27 29 30 31 rings
6 5 9 19 21 22 25 rings
6 6 8 16 18 23 24 rings

> <PUBCHEM_HEAVY_ATOM_COUNT>
31

> <PUBCHEM_ATOM_DEF_STEREO_COUNT>
0

> <PUBCHEM_ATOM_UDEF_STEREO_COUNT>
0

> <PUBCHEM_BOND_DEF_STEREO_COUNT>
0

> <PUBCHEM_BOND_UDEF_STEREO_COUNT>
0

> <PUBCHEM_ISOTOPIC_ATOM_COUNT>
0

> <PUBCHEM_COMPONENT_COUNT>
1

> <PUBCHEM_CACTVS_TAUTO_COUNT>
3

> <PUBCHEM_CONFORMER_ID>
00F4E91200000001

> <PUBCHEM_MMFF94_ENERGY>
91.0084

> <PUBCHEM_FEATURE_SELFOVERLAP>
61.014

> <PUBCHEM_SHAPE_FINGERPRINT>
10074138 170 17471552353449780144
10165383 225 17754742954926412452
10190108 129 18270132218976381890
12160290 23 17554888767941156844
12293681 4 18047741607838055501
12422481 6 17487902198581441179
12633257 1 18413106190843942599
13135754 10 17836652924810687894
13583140 156 18410291441614335015
13965767 371 16988560148031060134
14950920 106 18338519754933285603
14955137 171 18338233886136030346
15142526 21 17548422956654384705
15475509 84 18263651658365584037
15842332 3 17771894189426137631
17868525 174 18410856538761429057
19319366 153 17838901782540178689
20739085 24 18341889714821520024
21344244 78 18272365378125223787
21756936 100 17335908257963030228
21860390 5 18272101503950995255
23559900 14 17240759619020525407
23845131 108 17687460582568510723
3380486 145 18054472921287041046
350125 39 17182185542284815156
3552219 110 17896902984127215374
44802255 64 11885961082317002344
484985 159 17249767655219363194
513202 73 17840594699766484414
6009941 240 17897715462346443589
6086070 43 18413105065989149607
621550 5 17894628115252717318
6442390 28 17470733676590026812
6703917 75 17179701757896896796
6786 2 17541673046197084668
7097593 13 18342734135225160751
7288768 16 17189253232497513461

> <PUBCHEM_SHAPE_MULTIPOLES>
587.66
9.93
5.87
2.45
15.44
7.5
1.62
-9.06
-7.12
-7.07
-1.33
1.37
-0.52
-0.88

> <PUBCHEM_SHAPE_SELFOVERLAP>
1285.278

> <PUBCHEM_SHAPE_VOLUME>
321.7

> <PUBCHEM_COORDINATE_TYPE>
2
5
10

$$$$
16050449
  -OEChem-05102415023D

 60 64  0     0  0  0  0  0  0999 V2000
    1.1437    5.8867   -1.1417 F   0  0  0  0  0  0  0  0  0  0  0  0
    5.4300   -0.0953   -2.2602 O   0  0  0  0  0  0  0  0  0  0  0  0
   -1.7303   -0.8615    1.0955 N   0  0  0  0  0  0  0  0  0  0  0  0
   -4.0502   -2.3920    0.9133 N   0  0  0  0  0  0  0  0  0  0  0  0
   -2.6214    0.7905   -0.1121 N   0  0  0  0  0  0  0  0  0  0  0  0
    3.7130   -1.2727    0.5710 N   0  0  0  0  0  0  0  0  0  0  0  0
    1.4846   -0.5794    0.8166 N   0  0  0  0  0  0  0  0  0  0  0  0
    3.0743   -0.2925    2.6047 N   0  0  0  0  0  0  0  0  0  0  0  0
   -5.1543   -1.1151   -1.8504 C   0  0  0  0  0  0  0  0  0  0  0  0
   -6.4350   -1.2191   -2.6207 C   0  0  0  0  0  0  0  0  0  0  0  0
   -5.6815   -2.4609   -2.2438 C   0  0  0  0  0  0  0  0  0  0  0  0
   -5.2019   -0.7097   -0.4189 C   0  0  0  0  0  0  0  0  0  0  0  0
   -4.0076   -1.2194    0.3356 C   0  0  0  0  0  0  0  0  0  0  0  0
   -2.8235   -0.3969    0.4074 C   0  0  0  0  0  0  0  0  0  0  0  0
   -0.7558    0.0972    1.0119 C   0  0  0  0  0  0  0  0  0  0  0  0
    4.7866   -2.2995   -1.4177 C   0  0  0  0  0  0  0  0  0  0  0  0
   -1.3345    1.1050    0.2606 C   0  0  0  0  0  0  0  0  0  0  0  0
   -1.7778   -2.1005    1.7052 C   0  0  0  0  0  0  0  0  0  0  0  0
   -2.9158   -2.8124    1.5961 C   0  0  0  0  0  0  0  0  0  0  0  0
    3.4903   -1.7488   -0.7751 C   0  0  0  0  0  0  0  0  0  0  0  0
    0.5489   -0.0150    1.6078 C   0  0  0  0  0  0  0  0  0  0  0  0
    5.8852   -1.2174   -1.5151 C   0  0  0  0  0  0  0  0  0  0  0  0
    4.4351   -2.7975   -2.8351 C   0  0  0  0  0  0  0  0  0  0  0  0
    5.3302   -3.4900   -0.6061 C   0  0  0  0  0  0  0  0  0  0  0  0
   -0.6965    2.3359   -0.1004 C   0  0  0  0  0  0  0  0  0  0  0  0
    2.7269   -0.6970    1.3549 C   0  0  0  0  0  0  0  0  0  0  0  0
    0.7960    0.4291    2.8908 C   0  0  0  0  0  0  0  0  0  0  0  0
    0.0337    2.4249   -1.2875 C   0  0  0  0  0  0  0  0  0  0  0  0
   -0.8026    3.4512    0.7335 C   0  0  0  0  0  0  0  0  0  0  0  0
    2.0897    0.2632    3.3411 C   0  0  0  0  0  0  0  0  0  0  0  0
    0.6549    3.6234   -1.6389 C   0  0  0  0  0  0  0  0  0  0  0  0
   -0.1816    4.6497    0.3820 C   0  0  0  0  0  0  0  0  0  0  0  0
    0.5473    4.7358   -0.8041 C   0  0  0  0  0  0  0  0  0  0  0  0
   -4.2884   -0.7295   -2.3746 H   0  0  0  0  0  0  0  0  0  0  0  0
   -6.4236   -0.9196   -3.6615 H   0  0  0  0  0  0  0  0  0  0  0  0
   -7.3693   -1.0220   -2.1096 H   0  0  0  0  0  0  0  0  0  0  0  0
   -6.1126   -3.0985   -1.4817 H   0  0  0  0  0  0  0  0  0  0  0  0
   -5.1626   -2.9946   -3.0307 H   0  0  0  0  0  0  0  0  0  0  0  0
   -6.1053   -1.0920    0.0732 H   0  0  0  0  0  0  0  0  0  0  0  0
   -5.2455    0.3830   -0.3494 H   0  0  0  0  0  0  0  0  0  0  0  0
   -0.9088   -2.4555    2.2441 H   0  0  0  0  0  0  0  0  0  0  0  0
   -2.9898   -3.7895    2.0614 H   0  0  0  0  0  0  0  0  0  0  0  0
    2.7295   -2.5401   -0.7555 H   0  0  0  0  0  0  0  0  0  0  0  0
    3.0892   -0.9335   -1.3905 H   0  0  0  0  0  0  0  0  0  0  0  0
    6.1849   -0.8586   -0.5254 H   0  0  0  0  0  0  0  0  0  0  0  0
    6.7869   -1.6078   -2.0011 H   0  0  0  0  0  0  0  0  0  0  0  0
    3.7277   -3.6339   -2.7925 H   0  0  0  0  0  0  0  0  0  0  0  0
    5.3284   -3.1473   -3.3646 H   0  0  0  0  0  0  0  0  0  0  0  0
    3.9713   -2.0118   -3.4410 H   0  0  0  0  0  0  0  0  0  0  0  0
    5.6676   -3.1889    0.3910 H   0  0  0  0  0  0  0  0  0  0  0  0
    4.5657   -4.2651   -0.4812 H   0  0  0  0  0  0  0  0  0  0  0  0
    6.1872   -3.9497   -1.1121 H   0  0  0  0  0  0  0  0  0  0  0  0
    4.6308   -1.3489    0.9924 H   0  0  0  0  0  0  0  0  0  0  0  0
    0.0348    0.8808    3.5146 H   0  0  0  0  0  0  0  0  0  0  0  0
    0.1281    1.5671   -1.9494 H   0  0  0  0  0  0  0  0  0  0  0  0
   -1.3669    3.4011    1.6619 H   0  0  0  0  0  0  0  0  0  0  0  0
    5.4076   -0.3503   -3.1977 H   0  0  0  0  0  0  0  0  0  0  0  0
    2.3793    0.5823    4.3367 H   0  0  0  0  0  0  0  0  0  0  0  0
    1.2228    3.6907   -2.5621 H   0  0  0  0  0  0  0  0  0  0  0  0
   -0.2652    5.5159    1.0316 H   0  0  0  0  0  0  0  0  0  0  0  0
  1 33  1  0  0  0  0
  2 22  1  0  0  0  0
  2 57  1  0  0  0  0
  3 14  1  0  0  0  0
  3 15  1  0  0  0  0
  3 18  1  0  0  0  0
  4 13  2  0  0  0  0
  4 19  1  0  0  0  0
  5 14  2  0  0  0  0
  5 17  1  0  0  0  0
  6 20  1  0  0  0  0
  6 26  1  0  0  0  0
  6 53  1  0  0  0  0
  7 21  2  0  0  0  0
  7 26  1  0  0  0  0
  8 26  2  0  0  0  0
  8 30  1  0  0  0  0
  9 10  1  0  0  0  0
  9 11  1  0  0  0  0
  9 12  1  0  0  0  0
  9 34  1  0  0  0  0
 10 11  1  0  0  0  0
 10 35  1  0  0  0  0
 10 36  1  0  0  0  0
 11 37  1  0  0  0  0
 11 38  1  0  0  0  0
 12 13  1  0  0  0  0
 12 39  1  0  0  0  0
 12 40  1  0  0  0  0
 13 14  1  0  0  0  0
 15 17  2  0  0  0  0
 15 21  1  0  0  0  0
 16 20  1  0  0  0  0
 16 22  1  0  0  0  0
 16 23  1  0  0  0  0
 16 24  1  0  0  0  0
 17 25  1  0  0  0  0
 18 19  2  0  0  0  0
 18 41  1  0  0  0  0
 19 42  1  0  0  0  0
 20 43  1  0  0  0  0
 20 44  1  0  0  0  0
 21 27  1  0  0  0  0
 22 45  1  0  0  0  0
 22 46  1  0  0  0  0
 23 47  1  0  0  0  0
 23 48  1  0  0  0  0
 23 49  1  0  0  0  0
 24 50  1  0  0  0  0
 24 51  1  0  0  0  0
 24 52  1  0  0  0  0
 25 28  2  0  0  0  0
 25 29  1  0  0  0  0
 27 30  2  0  0  0  0
 27 54  1  0  0  0  0
 28 31  1  0  0  0  0
 28 55  1  0  0  0  0
 29 32  2  0  0  0  0
 29 56  1  0  0  0  0
 30 58  1  0  0  0  0
 31 33  2  0  0  0  0
 31 59  1  0  0  0  0
 32 33  1  0  0  0  0
 32 60  1  0  0  0  0
M  END
> <PUBCHEM_COMPOUND_CID>
16050449

> <PUBCHEM_CONFORMER_RMSD>
1

> <PUBCHEM_CONFORMER_DIVERSEORDER>
1
130
132
56
27
24
129
49
85
119
113
25
118
74
122
57
107
68
42
78
20
83
58
37
108
125
92
19
90
84
29
13
94
76
109
91
66
36
30
15
72
11
86
7
82
70
48
79
87
60
44
81
55
28
45
53
103
101
69
8
114
116
126
115
52
61
121
12
104
120
117
98
95
93
131
39
43
110
38
54
123
128
64
99
46
40
124
97
59
100
34
41
106
65
50
112
75
17
89
73
51
71
67
127
63
18
2
6
35
22
102
31
105
62
23
77
80
47
16
111
21
3
9
88
14
33
32
96
10
5
26
4

> <PUBCHEM_MMFF94_PARTIAL_CHARGES>
45
1 -0.19
10 -0.2
11 -0.2
12 0.16
13 0.47
14 0.1
15 -0.2
17 0.17
18 -0.18
19 0.02
2 -0.68
20 0.37
21 0.36
22 0.28
25 0.05
26 0.72
27 -0.15
28 -0.15
29 -0.15
3 0.33
30 0.16
31 -0.15
32 -0.15
33 0.19
34 0.1
35 0.1
36 0.1
37 0.1
38 0.1
4 -0.62
41 0.15
42 0.15
5 -0.57
53 0.4
54 0.15
55 0.15
56 0.15
57 0.4
58 0.15
59 0.15
6 -0.87
60 0.15
7 -0.62
8 -0.62
9 -0.19

> <PUBCHEM_EFFECTIVE_ROTOR_COUNT>
8.6

> <PUBCHEM_PHARMACOPHORE_FEATURES>
12
1 2 acceptor
1 2 donor
1 4 acceptor
1 6 donor
1 7 acceptor
3 16 23 24 hydrophobe
3 3 5 14 cation
4 6 7 8 26 cation
5 3 5 14 15 17 rings
6 25 28 29 31 32 33 rings
6 3 4 13 14 18 19 rings
6 7 8 21 26 27 30 rings

> <PUBCHEM_HEAVY_ATOM_COUNT>
33

> <PUBCHEM_ATOM_DEF_STEREO_COUNT>
0

> <PUBCHEM_ATOM_UDEF_STEREO_COUNT>
0

> <PUBCHEM_BOND_DEF_STEREO_COUNT>
0

> <PUBCHEM_BOND_UDEF_STEREO_COUNT>
0

> <PUBCHEM_ISOTOPIC_ATOM_COUNT>
0

> <PUBCHEM_COMPONENT_COUNT>
1

> <PUBCHEM_CACTVS_TAUTO_COUNT>
6

> <PUBCHEM_CONFORMER_ID>
00F4E91100000001

> <PUBCHEM_MMFF94_ENERGY>
98.4604

> <PUBCHEM_FEATURE_SELFOVERLAP>
61.014

> <PUBCHEM_SHAPE_FINGERPRINT>
10165383 225 17476932246496613056
10369192 42 17701801380545872720
11297010 23 17830713706732203517
11331351 85 18202566147001840985
11488393 25 17470197072277671618
11607047 403 16682353628654986305
12623949 98 17417520423256859879
12788726 201 17969223334898586762
12988421 55 8934999239777959143
131258 43 18129956705047114824
13540713 4 17461430606572789323
13757389 114 18052267189356668277
13782708 43 17989198210054552662
14910302 57 18197779895571140506
14955137 171 18117867472016155401
15324884 4 18270943722449095915
15475509 8 18339359665852347537
15664445 248 18262508290668045240
16991981 162 17833297241519949276
1813 80 18340751720191852013
19315092 285 16773792640920634935
19438510 23 12396306967064330870
20642791 239 17240770596413478085
21133665 82 17248358537344582476
23559900 14 18335702814284224659
23569914 2 12326455092411296495
3610482 184 17247563233933225430
376196 1 12179846078306856970
4017518 198 17692814101191694188
4353968 344 18337119952546671542
437795 70 18340478964336434197
5081480 168 18113615733745057901
613672 6 18408885161251395346

> <PUBCHEM_SHAPE_MULTIPOLES>
636.1
12.21
5.93
3.09
1.07
10.13
-0.6
-17.62
10.88
-1.91
3.36
-1.24
-1.12
0.84

> <PUBCHEM_SHAPE_SELFOVERLAP>
1385.893

> <PUBCHEM_SHAPE_VOLUME>
349.8

> <PUBCHEM_COORDINATE_TYPE>
2
5
10

$$$$
25016360
  -OEChem-05102415023D

 57 61  0     0  0  0  0  0  0999 V2000
    0.5145   -2.4519   -1.2641 F   0  0  0  0  0  0  0  0  0  0  0  0
   -2.4634   -4.7535    1.5987 F   0  0  0  0  0  0  0  0  0  0  0  0
   -5.3382    1.7949   -2.7088 O   0  0  0  0  0  0  0  0  0  0  0  0
    1.9163    1.4408    0.5085 N   0  0  0  0  0  0  0  0  0  0  0  0
    4.5310    2.1579   -0.1295 N   0  0  0  0  0  0  0  0  0  0  0  0
    2.3936   -0.7366    0.3948 N   0  0  0  0  0  0  0  0  0  0  0  0
   -1.5101    1.1712    0.2507 N   0  0  0  0  0  0  0  0  0  0  0  0
   -3.7562    1.5146   -0.3347 N   0  0  0  0  0  0  0  0  0  0  0  0
   -2.9153    2.6406    1.5444 N   0  0  0  0  0  0  0  0  0  0  0  0
    5.5371   -0.3067   -1.7584 C   0  0  0  0  0  0  0  0  0  0  0  0
    4.6643   -1.2013   -2.5889 C   0  0  0  0  0  0  0  0  0  0  0  0
    6.0735   -1.6098   -2.2740 C   0  0  0  0  0  0  0  0  0  0  0  0
    5.2544   -0.1611   -0.3041 C   0  0  0  0  0  0  0  0  0  0  0  0
    4.2136    0.8915   -0.0505 C   0  0  0  0  0  0  0  0  0  0  0  0
    2.8694    0.4802    0.2774 C   0  0  0  0  0  0  0  0  0  0  0  0
    0.7494    0.7909    0.7937 C   0  0  0  0  0  0  0  0  0  0  0  0
    1.0689   -0.5490    0.7174 C   0  0  0  0  0  0  0  0  0  0  0  0
    2.2542    2.7780    0.4246 C   0  0  0  0  0  0  0  0  0  0  0  0
    3.5276    3.0872    0.1140 C   0  0  0  0  0  0  0  0  0  0  0  0
   -0.4977    1.4557    1.0961 C   0  0  0  0  0  0  0  0  0  0  0  0
    0.1594   -1.6329    0.9405 C   0  0  0  0  0  0  0  0  0  0  0  0
   -4.9878    0.5059   -2.1986 C   0  0  0  0  0  0  0  0  0  0  0  0
   -3.6500    0.6318   -1.4538 C   0  0  0  0  0  0  0  0  0  0  0  0
   -0.6153    2.3105    2.1730 C   0  0  0  0  0  0  0  0  0  0  0  0
   -0.0902   -2.5596   -0.0717 C   0  0  0  0  0  0  0  0  0  0  0  0
   -0.4773   -1.7603    2.1751 C   0  0  0  0  0  0  0  0  0  0  0  0
   -2.6738    1.7891    0.5295 C   0  0  0  0  0  0  0  0  0  0  0  0
   -6.1175    0.0108   -1.2915 C   0  0  0  0  0  0  0  0  0  0  0  0
   -4.8225   -0.4393   -3.3930 C   0  0  0  0  0  0  0  0  0  0  0  0
   -1.8598    2.8799    2.3501 C   0  0  0  0  0  0  0  0  0  0  0  0
   -0.9762   -3.6138    0.1506 C   0  0  0  0  0  0  0  0  0  0  0  0
   -1.3634   -2.8144    2.3975 C   0  0  0  0  0  0  0  0  0  0  0  0
   -1.6128   -3.7411    1.3851 C   0  0  0  0  0  0  0  0  0  0  0  0
    5.9168    0.6010   -2.2116 H   0  0  0  0  0  0  0  0  0  0  0  0
    3.8637   -1.7480   -2.1061 H   0  0  0  0  0  0  0  0  0  0  0  0
    4.4437   -0.8891   -3.6023 H   0  0  0  0  0  0  0  0  0  0  0  0
    6.7997   -1.5737   -3.0770 H   0  0  0  0  0  0  0  0  0  0  0  0
    6.2175   -2.4269   -1.5779 H   0  0  0  0  0  0  0  0  0  0  0  0
    6.1759    0.1482    0.2041 H   0  0  0  0  0  0  0  0  0  0  0  0
    4.9518   -1.1122    0.1486 H   0  0  0  0  0  0  0  0  0  0  0  0
    1.4971    3.5306    0.6007 H   0  0  0  0  0  0  0  0  0  0  0  0
    3.8288    4.1264    0.0361 H   0  0  0  0  0  0  0  0  0  0  0  0
   -2.8904    1.0220   -2.1433 H   0  0  0  0  0  0  0  0  0  0  0  0
   -3.3231   -0.3608   -1.1190 H   0  0  0  0  0  0  0  0  0  0  0  0
    0.2018    2.5265    2.8503 H   0  0  0  0  0  0  0  0  0  0  0  0
   -0.2912   -1.0552    2.9818 H   0  0  0  0  0  0  0  0  0  0  0  0
   -4.6120    2.0261   -0.1545 H   0  0  0  0  0  0  0  0  0  0  0  0
   -6.3543    0.7337   -0.5041 H   0  0  0  0  0  0  0  0  0  0  0  0
   -7.0435   -0.1204   -1.8638 H   0  0  0  0  0  0  0  0  0  0  0  0
   -5.8660   -0.9471   -0.8246 H   0  0  0  0  0  0  0  0  0  0  0  0
   -4.0554   -0.0670   -4.0818 H   0  0  0  0  0  0  0  0  0  0  0  0
   -4.5426   -1.4484   -3.0731 H   0  0  0  0  0  0  0  0  0  0  0  0
   -5.7505   -0.5051   -3.9726 H   0  0  0  0  0  0  0  0  0  0  0  0
   -2.0488    3.5636    3.1708 H   0  0  0  0  0  0  0  0  0  0  0  0
   -1.1705   -4.3353   -0.6374 H   0  0  0  0  0  0  0  0  0  0  0  0
   -1.8578   -2.9150    3.3591 H   0  0  0  0  0  0  0  0  0  0  0  0
   -6.1834    1.7108   -3.1824 H   0  0  0  0  0  0  0  0  0  0  0  0
  1 25  1  0  0  0  0
  2 33  1  0  0  0  0
  3 22  1  0  0  0  0
  3 57  1  0  0  0  0
  4 15  1  0  0  0  0
  4 16  1  0  0  0  0
  4 18  1  0  0  0  0
  5 14  2  0  0  0  0
  5 19  1  0  0  0  0
  6 15  2  0  0  0  0
  6 17  1  0  0  0  0
  7 20  2  0  0  0  0
  7 27  1  0  0  0  0
  8 23  1  0  0  0  0
  8 27  1  0  0  0  0
  8 47  1  0  0  0  0
  9 27  2  0  0  0  0
  9 30  1  0  0  0  0
 10 11  1  0  0  0  0
 10 12  1  0  0  0  0
 10 13  1  0  0  0  0
 10 34  1  0  0  0  0
 11 12  1  0  0  0  0
 11 35  1  0  0  0  0
 11 36  1  0  0  0  0
 12 37  1  0  0  0  0
 12 38  1  0  0  0  0
 13 14  1  0  0  0  0
 13 39  1  0  0  0  0
 13 40  1  0  0  0  0
 14 15  1  0  0  0  0
 16 17  2  0  0  0  0
 16 20  1  0  0  0  0
 17 21  1  0  0  0  0
 18 19  2  0  0  0  0
 18 41  1  0  0  0  0
 19 42  1  0  0  0  0
 20 24  1  0  0  0  0
 21 25  2  0  0  0  0
 21 26  1  0  0  0  0
 22 23  1  0  0  0  0
 22 28  1  0  0  0  0
 22 29  1  0  0  0  0
 23 43  1  0  0  0  0
 23 44  1  0  0  0  0
 24 30  2  0  0  0  0
 24 45  1  0  0  0  0
 25 31  1  0  0  0  0
 26 32  2  0  0  0  0
 26 46  1  0  0  0  0
 28 48  1  0  0  0  0
 28 49  1  0  0  0  0
 28 50  1  0  0  0  0
 29 51  1  0  0  0  0
 29 52  1  0  0  0  0
 29 53  1  0  0  0  0
 30 54  1  0  0  0  0
 31 33  2  0  0  0  0
 31 55  1  0  0  0  0
 32 33  1  0  0  0  0
 32 56  1  0  0  0  0
M  END
> <PUBCHEM_COMPOUND_CID>
25016360

> <PUBCHEM_CONFORMER_RMSD>
1

> <PUBCHEM_CONFORMER_DIVERSEORDER>
3
9
74
38
44
1
63
18
80
52
11
45
8
64
50
2
61
28
22
54
57
29
70
7
5
78
75
66
69
55
25
56
48
33
59
6
35
71
30
20
12
37
73
15
79
51
36
17
43
4
67
77
62
49
42
40
68
26
19
14
41
47
39
13
65
72
46
60
16
32
10
53
24
34
23
27
31
76
58
21

> <PUBCHEM_MMFF94_PARTIAL_CHARGES>
45
1 -0.19
10 -0.19
11 -0.2
12 -0.2
13 0.16
14 0.47
15 0.1
16 -0.2
17 0.17
18 -0.18
19 0.02
2 -0.19
20 0.36
21 0.05
22 0.28
23 0.37
24 -0.15
25 0.19
26 -0.15
27 0.72
3 -0.68
30 0.16
31 -0.15
32 -0.15
33 0.19
34 0.1
35 0.1
36 0.1
37 0.1
38 0.1
4 0.33
41 0.15
42 0.15
45 0.15
46 0.15
47 0.4
5 -0.62
54 0.15
55 0.15
56 0.15
57 0.4
6 -0.57
7 -0.62
8 -0.87
9 -0.62

> <PUBCHEM_EFFECTIVE_ROTOR_COUNT>
7.6

> <PUBCHEM_PHARMACOPHORE_FEATURES>
12
1 3 acceptor
1 3 donor
1 5 acceptor
1 7 acceptor
1 8 donor
3 22 28 29 hydrophobe
3 4 6 15 cation
4 7 8 9 27 cation
5 4 6 15 16 17 rings
6 21 25 26 31 32 33 rings
6 4 5 14 15 18 19 rings
6 7 9 20 24 27 30 rings

> <PUBCHEM_HEAVY_ATOM_COUNT>
33

> <PUBCHEM_ATOM_DEF_STEREO_COUNT>
0

> <PUBCHEM_ATOM_UDEF_STEREO_COUNT>
0

> <PUBCHEM_BOND_DEF_STEREO_COUNT>
0

> <PUBCHEM_BOND_UDEF_STEREO_COUNT>
0

> <PUBCHEM_ISOTOPIC_ATOM_COUNT>
0

> <PUBCHEM_COMPONENT_COUNT>
1

> <PUBCHEM_CACTVS_TAUTO_COUNT>
6

> <PUBCHEM_CONFORMER_ID>
017DB82800000003

> <PUBCHEM_MMFF94_ENERGY>
93.1375

> <PUBCHEM_FEATURE_SELFOVERLAP>
61.017

> <PUBCHEM_SHAPE_FINGERPRINT>
11285246 1 18273217490951759062
11578080 2 17896600773069498956
11991303 11 17676217883006714939
12422481 6 17837537172392739578
13540713 4 18193842763522866560
14289585 56 18190177893108826084
14931854 50 18341880867468582453
15361156 5 17700723708763369348
15775530 1 17404842131187495441
17138139 8 18056168441442317013
17909252 39 17346303947171821648
18603816 31 15982601507082611998
20505436 4 17625840270577982481
20775438 99 17270847839859379836
21344244 181 18272368702572874495
22182313 1 18269569402166634744
22393880 68 18270389478242123453
23536364 44 18412825811178539175
23559900 14 18270702887492260572
238 59 18262223427431688281
4015057 19 18130793377904227720
4058900 60 17969216729761228445
437795 51 18339917234417338743
4409770 3 18266179615759503995
44802255 64 17241065240192740406
563151 248 17201947850359634161
7970288 3 17059474353477167549

> <PUBCHEM_SHAPE_MULTIPOLES>
628.82
11.84
4.68
2.94
3.16
3.08
1.52
-1.92
13.7
-1.76
-3.26
-3.1
0.86
2.27

> <PUBCHEM_SHAPE_SELFOVERLAP>
1380.503

> <PUBCHEM_SHAPE_VOLUME>
342

> <PUBCHEM_COORDINATE_TYPE>
2
5
10

$$$$
49830610
  -OEChem-05102415023D

 54 57  0     0  0  0  0  0  0999 V2000
   -0.4819   -2.3750    1.8785 F   0  0  0  0  0  0  0  0  0  0  0  0
    2.3724   -4.7289   -1.0665 F   0  0  0  0  0  0  0  0  0  0  0  0
    5.4255   -0.6946    0.3166 O   0  0  0  0  0  0  0  0  0  0  0  0
   -5.3832   -0.7121    1.2519 O   0  0  0  0  0  0  0  0  0  0  0  0
    3.0569    1.8529   -0.1843 N   0  0  0  0  0  0  0  0  0  0  0  0
   -2.5918    1.0396   -0.1589 N   0  0  0  0  0  0  0  0  0  0  0  0
    0.8400    1.1837   -0.3711 N   0  0  0  0  0  0  0  0  0  0  0  0
   -2.7664   -1.1385    0.3046 N   0  0  0  0  0  0  0  0  0  0  0  0
    1.8643    2.5933   -2.0357 N   0  0  0  0  0  0  0  0  0  0  0  0
   -5.1810    1.5559    0.7597 N   0  0  0  0  0  0  0  0  0  0  0  0
    4.6799    1.2525    1.5954 C   0  0  0  0  0  0  0  0  0  0  0  0
    3.2331    1.1349    1.0574 C   0  0  0  0  0  0  0  0  0  0  0  0
    5.7116    0.6682    0.6048 C   0  0  0  0  0  0  0  0  0  0  0  0
    5.0359    2.7245    1.8751 C   0  0  0  0  0  0  0  0  0  0  0  0
    4.7528    0.4735    2.9253 C   0  0  0  0  0  0  0  0  0  0  0  0
   -1.3978    0.4868   -0.5253 C   0  0  0  0  0  0  0  0  0  0  0  0
    1.8683    1.8777   -0.8948 C   0  0  0  0  0  0  0  0  0  0  0  0
   -1.5299   -0.8549   -0.2303 C   0  0  0  0  0  0  0  0  0  0  0  0
   -0.3018    1.2296   -1.0884 C   0  0  0  0  0  0  0  0  0  0  0  0
   -3.3741    0.0228    0.3314 C   0  0  0  0  0  0  0  0  0  0  0  0
   -0.5246   -1.8536   -0.4417 C   0  0  0  0  0  0  0  0  0  0  0  0
   -0.4362    1.9262   -2.2721 C   0  0  0  0  0  0  0  0  0  0  0  0
   -3.0893    2.3312   -0.1987 C   0  0  0  0  0  0  0  0  0  0  0  0
   -4.6916    0.3498    0.7870 C   0  0  0  0  0  0  0  0  0  0  0  0
    0.6911    2.5961   -2.7019 C   0  0  0  0  0  0  0  0  0  0  0  0
   -0.0288   -2.5895    0.6346 C   0  0  0  0  0  0  0  0  0  0  0  0
   -0.0418   -2.0892   -1.7291 C   0  0  0  0  0  0  0  0  0  0  0  0
   -4.3425    2.5440    0.2526 C   0  0  0  0  0  0  0  0  0  0  0  0
    0.9500   -3.5606    0.4237 C   0  0  0  0  0  0  0  0  0  0  0  0
    0.9372   -3.0602   -1.9400 C   0  0  0  0  0  0  0  0  0  0  0  0
    1.4331   -3.7959   -0.8636 C   0  0  0  0  0  0  0  0  0  0  0  0
   -6.6890   -0.3901    1.7038 C   0  0  0  0  0  0  0  0  0  0  0  0
    2.5340    1.5319    1.8051 H   0  0  0  0  0  0  0  0  0  0  0  0
    2.9784    0.0775    0.9097 H   0  0  0  0  0  0  0  0  0  0  0  0
    6.7212    0.7175    1.0288 H   0  0  0  0  0  0  0  0  0  0  0  0
    5.7215    1.2217   -0.3399 H   0  0  0  0  0  0  0  0  0  0  0  0
    4.3048    3.1864    2.5481 H   0  0  0  0  0  0  0  0  0  0  0  0
    6.0202    2.8058    2.3506 H   0  0  0  0  0  0  0  0  0  0  0  0
    5.0704    3.3213    0.9579 H   0  0  0  0  0  0  0  0  0  0  0  0
    5.7638    0.5047    3.3469 H   0  0  0  0  0  0  0  0  0  0  0  0
    4.0703    0.8992    3.6698 H   0  0  0  0  0  0  0  0  0  0  0  0
    4.4799   -0.5791    2.7914 H   0  0  0  0  0  0  0  0  0  0  0  0
    3.8273    2.3749   -0.5840 H   0  0  0  0  0  0  0  0  0  0  0  0
    6.1083   -1.0052   -0.3021 H   0  0  0  0  0  0  0  0  0  0  0  0
   -1.3552    1.9508   -2.8444 H   0  0  0  0  0  0  0  0  0  0  0  0
   -2.4646    3.1284   -0.5796 H   0  0  0  0  0  0  0  0  0  0  0  0
    0.6823    3.1694   -3.6227 H   0  0  0  0  0  0  0  0  0  0  0  0
   -0.4202   -1.5343   -2.5844 H   0  0  0  0  0  0  0  0  0  0  0  0
   -4.7609    3.5447    0.2379 H   0  0  0  0  0  0  0  0  0  0  0  0
    1.3363   -4.1333    1.2615 H   0  0  0  0  0  0  0  0  0  0  0  0
    1.3122   -3.2451   -2.9422 H   0  0  0  0  0  0  0  0  0  0  0  0
   -6.6536    0.3090    2.5460 H   0  0  0  0  0  0  0  0  0  0  0  0
   -7.3020    0.0072    0.8880 H   0  0  0  0  0  0  0  0  0  0  0  0
   -7.1598   -1.3129    2.0559 H   0  0  0  0  0  0  0  0  0  0  0  0
  1 26  1  0  0  0  0
  2 31  1  0  0  0  0
  3 13  1  0  0  0  0
  3 44  1  0  0  0  0
  4 24  1  0  0  0  0
  4 32  1  0  0  0  0
  5 12  1  0  0  0  0
  5 17  1  0  0  0  0
  5 43  1  0  0  0  0
  6 16  1  0  0  0  0
  6 20  1  0  0  0  0
  6 23  1  0  0  0  0
  7 17  1  0  0  0  0
  7 19  2  0  0  0  0
  8 18  1  0  0  0  0
  8 20  2  0  0  0  0
  9 17  2  0  0  0  0
  9 25  1  0  0  0  0
 10 24  2  0  0  0  0
 10 28  1  0  0  0  0
 11 12  1  0  0  0  0
 11 13  1  0  0  0  0
 11 14  1  0  0  0  0
 11 15  1  0  0  0  0
 12 33  1  0  0  0  0
 12 34  1  0  0  0  0
 13 35  1  0  0  0  0
 13 36  1  0  0  0  0
 14 37  1  0  0  0  0
 14 38  1  0  0  0  0
 14 39  1  0  0  0  0
 15 40  1  0  0  0  0
 15 41  1  0  0  0  0
 15 42  1  0  0  0  0
 16 18  2  0  0  0  0
 16 19  1  0  0  0  0
 18 21  1  0  0  0  0
 19 22  1  0  0  0  0
 20 24  1  0  0  0  0
 21 26  2  0  0  0  0
 21 27  1  0  0  0  0
 22 25  2  0  0  0  0
 22 45  1  0  0  0  0
 23 28  2  0  0  0  0
 23 46  1  0  0  0  0
 25 47  1  0  0  0  0
 26 29  1  0  0  0  0
 27 30  2  0  0  0  0
 27 48  1  0  0  0  0
 28 49  1  0  0  0  0
 29 31  2  0  0  0  0
 29 50  1  0  0  0  0
 30 31  1  0  0  0  0
 30 51  1  0  0  0  0
 32 52  1  0  0  0  0
 32 53  1  0  0  0  0
 32 54  1  0  0  0  0
M  END
> <PUBCHEM_COMPOUND_CID>
49830610

> <PUBCHEM_CONFORMER_RMSD>
1

> <PUBCHEM_CONFORMER_DIVERSEORDER>
1
67
63
89
39
32
50
20
68
15
59
17
49
57
84
52
9
40
82
43
83
77
66
69
46
72
88
4
51
34
5
76
80
25
28
16
41
65
22
3
44
85
64
37
2
73
71
87
61
11
74
79
35
70
45
78
47
42
38
19
26
30
13
10
53
33
58
12
86
75
14
60
7
18
23
27
6
21
54
48
55
24
8
29
56
31
81
36
62

> <PUBCHEM_MMFF94_PARTIAL_CHARGES>
38
1 -0.19
10 -0.62
12 0.37
13 0.28
16 -0.2
17 0.72
18 0.17
19 0.36
2 -0.19
20 0.1
21 0.05
22 -0.15
23 -0.18
24 0.69
25 0.16
26 0.19
27 -0.15
28 0.02
29 -0.15
3 -0.68
30 -0.15
31 0.19
32 0.28
4 -0.43
43 0.4
44 0.4
45 0.15
46 0.15
47 0.15
48 0.15
49 0.15
5 -0.87
50 0.15
51 0.15
6 0.33
7 -0.62
8 -0.57
9 -0.62

> <PUBCHEM_EFFECTIVE_ROTOR_COUNT>
7

> <PUBCHEM_PHARMACOPHORE_FEATURES>
11
1 3 acceptor
1 3 donor
1 5 donor
1 7 acceptor
3 11 14 15 hydrophobe
3 6 8 20 cation
4 5 7 9 17 cation
5 6 8 16 18 20 rings
6 21 26 27 29 30 31 rings
6 6 10 20 23 24 28 rings
6 7 9 17 19 22 25 rings

> <PUBCHEM_HEAVY_ATOM_COUNT>
32

> <PUBCHEM_ATOM_DEF_STEREO_COUNT>
0

> <PUBCHEM_ATOM_UDEF_STEREO_COUNT>
0

> <PUBCHEM_BOND_DEF_STEREO_COUNT>
0

> <PUBCHEM_BOND_UDEF_STEREO_COUNT>
0

> <PUBCHEM_ISOTOPIC_ATOM_COUNT>
0

> <PUBCHEM_COMPONENT_COUNT>
1

> <PUBCHEM_CACTVS_TAUTO_COUNT>
3

> <PUBCHEM_CONFORMER_ID>
02F85AD200000001

> <PUBCHEM_MMFF94_ENERGY>
94.2603

> <PUBCHEM_FEATURE_SELFOVERLAP>
55.937

> <PUBCHEM_SHAPE_FINGERPRINT>
11552529 35 17692225845132027184
11582403 64 16988554719192346404
11607047 141 16914008841180370707
12422481 6 18262788571701869560
12553582 1 17605254342278308608
12633257 1 17531529879204832979
12741549 16 16909168635431950163
12788726 201 17472710598407610694
12839892 36 18337397161939880723
12925494 130 18125717886064752673
13004483 165 16978691236771457486
13140716 1 17980216497953001641
13402501 40 18338799997338791206
13540713 4 18191591852994258157
13692114 37 18269280221919147491
14739800 52 17416980443527087849
14840074 17 18113609123616484620
150020 26 17759205563776014498
15064986 96 18267852896426500146
15420108 30 18270669892535452847
15775530 1 17540514839209008756
16110190 28 18115019827363650704
16994733 274 15913336801443552161
17913733 40 18202570562106414843
1813 80 16950280702661181348
1979834 28 18409736153069984753
20505436 4 17319038399645115284
20554085 129 18059585719081171305
21033648 29 18058723736735774810
22149856 69 18126034692364801171
22182313 1 17898003526135764029
23419403 2 17905038162448106533
23559900 14 18117856412817765103
23598288 3 17469619858400028710
23728640 28 18124024904445527138
27425 322 16557031641227850026
3411729 13 18340768122571793897
3493558 16 17627514834912127176
5104073 3 18196954179951015169
5171179 24 17690826879156246765
5265222 85 18340214102388631108

> <PUBCHEM_SHAPE_MULTIPOLES>
602.37
11.49
4.75
2.32
2.62
5.19
-0.27
-6.73
10.68
-2.77
-1.97
-1.57
-0.83
1.47

> <PUBCHEM_SHAPE_SELFOVERLAP>
1320.141

> <PUBCHEM_SHAPE_VOLUME>
329.1

> <PUBCHEM_COORDINATE_TYPE>
2
5
10

$$$$
16050453
  -OEChem-05102415033D

 50 53  0     0  0  0  0  0  0999 V2000
    0.2901   -1.5312   -2.1067 F   0  0  0  0  0  0  0  0  0  0  0  0
    0.8090   -5.8321   -0.2109 F   0  0  0  0  0  0  0  0  0  0  0  0
   -5.7013    1.9630   -0.6203 O   0  0  0  0  0  0  0  0  0  0  0  0
    1.7922    1.7572    0.2763 N   0  0  0  0  0  0  0  0  0  0  0  0
   -3.5451    0.5796    0.6528 N   0  0  0  0  0  0  0  0  0  0  0  0
    2.9826    0.1829   -0.7658 N   0  0  0  0  0  0  0  0  0  0  0  0
   -1.1990    0.5754    0.6172 N   0  0  0  0  0  0  0  0  0  0  0  0
    3.5148    3.7746   -0.5723 N   0  0  0  0  0  0  0  0  0  0  0  0
   -2.4057    0.2684    2.6804 N   0  0  0  0  0  0  0  0  0  0  0  0
   -5.0589    0.8487   -1.2450 C   0  0  0  0  0  0  0  0  0  0  0  0
   -3.6062    0.7918   -0.7485 C   0  0  0  0  0  0  0  0  0  0  0  0
    1.1485    0.5792    0.5284 C   0  0  0  0  0  0  0  0  0  0  0  0
    1.9008   -0.3756   -0.1241 C   0  0  0  0  0  0  0  0  0  0  0  0
    2.8838    1.4642   -0.5027 C   0  0  0  0  0  0  0  0  0  0  0  0
   -5.0746    1.0894   -2.7579 C   0  0  0  0  0  0  0  0  0  0  0  0
   -5.8416   -0.4236   -0.9091 C   0  0  0  0  0  0  0  0  0  0  0  0
   -0.0554    0.4644    1.3196 C   0  0  0  0  0  0  0  0  0  0  0  0
    1.6184   -1.7798   -0.1495 C   0  0  0  0  0  0  0  0  0  0  0  0
    3.7534    2.5372   -0.9225 C   0  0  0  0  0  0  0  0  0  0  0  0
   -2.3230    0.4690    1.3513 C   0  0  0  0  0  0  0  0  0  0  0  0
    1.5424    3.0652    0.6450 C   0  0  0  0  0  0  0  0  0  0  0  0
    0.0014    0.2585    2.6794 C   0  0  0  0  0  0  0  0  0  0  0  0
    2.3966    4.0140    0.2163 C   0  0  0  0  0  0  0  0  0  0  0  0
    0.8114   -2.3183   -1.1541 C   0  0  0  0  0  0  0  0  0  0  0  0
    2.1509   -2.6159    0.8345 C   0  0  0  0  0  0  0  0  0  0  0  0
    4.9464    2.2146   -1.7757 C   0  0  0  0  0  0  0  0  0  0  0  0
   -1.2197    0.1673    3.3158 C   0  0  0  0  0  0  0  0  0  0  0  0
    0.5384   -3.6860   -1.1748 C   0  0  0  0  0  0  0  0  0  0  0  0
    1.8779   -3.9834    0.8138 C   0  0  0  0  0  0  0  0  0  0  0  0
    1.0715   -4.5186   -0.1908 C   0  0  0  0  0  0  0  0  0  0  0  0
   -3.1045    1.7375   -0.9917 H   0  0  0  0  0  0  0  0  0  0  0  0
   -3.0755   -0.0113   -1.2758 H   0  0  0  0  0  0  0  0  0  0  0  0
   -4.5491    2.0164   -3.0145 H   0  0  0  0  0  0  0  0  0  0  0  0
   -4.6055    0.2635   -3.3026 H   0  0  0  0  0  0  0  0  0  0  0  0
   -6.1016    1.2070   -3.1224 H   0  0  0  0  0  0  0  0  0  0  0  0
   -5.9607   -0.5561    0.1712 H   0  0  0  0  0  0  0  0  0  0  0  0
   -6.8582   -0.3673   -1.3157 H   0  0  0  0  0  0  0  0  0  0  0  0
   -5.3562   -1.3144   -1.3208 H   0  0  0  0  0  0  0  0  0  0  0  0
   -4.3857    0.5584    1.2179 H   0  0  0  0  0  0  0  0  0  0  0  0
    0.6779    3.2829    1.2589 H   0  0  0  0  0  0  0  0  0  0  0  0
   -5.2047    2.7666   -0.8510 H   0  0  0  0  0  0  0  0  0  0  0  0
    0.9317    0.1715    3.2264 H   0  0  0  0  0  0  0  0  0  0  0  0
    2.2323    5.0519    0.4857 H   0  0  0  0  0  0  0  0  0  0  0  0
    2.7813   -2.2151    1.6250 H   0  0  0  0  0  0  0  0  0  0  0  0
    5.6021    1.5197   -1.2432 H   0  0  0  0  0  0  0  0  0  0  0  0
    5.5071    3.1236   -2.0102 H   0  0  0  0  0  0  0  0  0  0  0  0
    4.6158    1.7500   -2.7091 H   0  0  0  0  0  0  0  0  0  0  0  0
   -1.2801    0.0054    4.3868 H   0  0  0  0  0  0  0  0  0  0  0  0
   -0.0897   -4.1026   -1.9565 H   0  0  0  0  0  0  0  0  0  0  0  0
    2.2926   -4.6321    1.5797 H   0  0  0  0  0  0  0  0  0  0  0  0
  1 24  1  0  0  0  0
  2 30  1  0  0  0  0
  3 10  1  0  0  0  0
  3 41  1  0  0  0  0
  4 12  1  0  0  0  0
  4 14  1  0  0  0  0
  4 21  1  0  0  0  0
  5 11  1  0  0  0  0
  5 20  1  0  0  0  0
  5 39  1  0  0  0  0
  6 13  1  0  0  0  0
  6 14  2  0  0  0  0
  7 17  2  0  0  0  0
  7 20  1  0  0  0  0
  8 19  2  0  0  0  0
  8 23  1  0  0  0  0
  9 20  2  0  0  0  0
  9 27  1  0  0  0  0
 10 11  1  0  0  0  0
 10 15  1  0  0  0  0
 10 16  1  0  0  0  0
 11 31  1  0  0  0  0
 11 32  1  0  0  0  0
 12 13  2  0  0  0  0
 12 17  1  0  0  0  0
 13 18  1  0  0  0  0
 14 19  1  0  0  0  0
 15 33  1  0  0  0  0
 15 34  1  0  0  0  0
 15 35  1  0  0  0  0
 16 36  1  0  0  0  0
 16 37  1  0  0  0  0
 16 38  1  0  0  0  0
 17 22  1  0  0  0  0
 18 24  2  0  0  0  0
 18 25  1  0  0  0  0
 19 26  1  0  0  0  0
 21 23  2  0  0  0  0
 21 40  1  0  0  0  0
 22 27  2  0  0  0  0
 22 42  1  0  0  0  0
 23 43  1  0  0  0  0
 24 28  1  0  0  0  0
 25 29  2  0  0  0  0
 25 44  1  0  0  0  0
 26 45  1  0  0  0  0
 26 46  1  0  0  0  0
 26 47  1  0  0  0  0
 27 48  1  0  0  0  0
 28 30  2  0  0  0  0
 28 49  1  0  0  0  0
 29 30  1  0  0  0  0
 29 50  1  0  0  0  0
M  END
> <PUBCHEM_COMPOUND_CID>
16050453

> <PUBCHEM_CONFORMER_RMSD>
0.8

> <PUBCHEM_CONFORMER_DIVERSEORDER>
1
110
122
9
6
85
99
106
75
20
25
53
5
58
18
46
103
14
44
45
87
78
82
98
52
19
13
108
40
32
21
55
65
88
54
117
12
56
97
51
113
77
57
30
26
41
31
23
94
111
102
22
107
119
33
89
101
92
70
112
35
83
42
47
100
69
80
84
73
37
118
74
48
43
90
62
120
79
28
86
11
105
71
63
36
76
60
116
115
61
93
81
16
72
121
7
50
24
59
27
114
96
39
29
66
49
104
34
109
15
91
68
38
95
17
64
2
10
8
4
67
3

> <PUBCHEM_MMFF94_PARTIAL_CHARGES>
37
1 -0.19
10 0.28
11 0.37
12 -0.2
13 0.17
14 0.1
17 0.36
18 0.05
19 0.47
2 -0.19
20 0.72
21 -0.18
22 -0.15
23 0.02
24 0.19
25 -0.15
26 0.06
27 0.16
28 -0.15
29 -0.15
3 -0.68
30 0.19
39 0.4
4 0.33
40 0.15
41 0.4
42 0.15
43 0.15
44 0.15
48 0.15
49 0.15
5 -0.87
50 0.15
6 -0.57
7 -0.62
8 -0.62
9 -0.62

> <PUBCHEM_EFFECTIVE_ROTOR_COUNT>
5

> <PUBCHEM_PHARMACOPHORE_FEATURES>
12
1 3 acceptor
1 3 donor
1 5 donor
1 7 acceptor
1 8 acceptor
3 10 15 16 hydrophobe
3 4 6 14 cation
4 5 7 9 20 cation
5 4 6 12 13 14 rings
6 18 24 25 28 29 30 rings
6 4 8 14 19 21 23 rings
6 7 9 17 20 22 27 rings

> <PUBCHEM_HEAVY_ATOM_COUNT>
30

> <PUBCHEM_ATOM_DEF_STEREO_COUNT>
0

> <PUBCHEM_ATOM_UDEF_STEREO_COUNT>
0

> <PUBCHEM_BOND_DEF_STEREO_COUNT>
0

> <PUBCHEM_BOND_UDEF_STEREO_COUNT>
0

> <PUBCHEM_ISOTOPIC_ATOM_COUNT>
0

> <PUBCHEM_COMPONENT_COUNT>
1

> <PUBCHEM_CACTVS_TAUTO_COUNT>
3

> <PUBCHEM_CONFORMER_ID>
00F4E91500000001

> <PUBCHEM_MMFF94_ENERGY>
87.2227

> <PUBCHEM_FEATURE_SELFOVERLAP>
61.017

> <PUBCHEM_SHAPE_FINGERPRINT>
10764073 3 16443607027345996618
10930396 42 17828168093017653506
11227688 84 17763218784700831006
11578080 2 17314254222482683739
11582403 64 17822840004716604009
11720765 8 17978207384396250485
11725454 13 17822283639053776025
11991303 11 17974870658874444222
12160290 23 17554329498679684722
133893 2 18197796417724635899
13911987 19 18265353856905316532
14856354 85 14901981537703248630
15324884 4 17825978036930952296
15842332 3 17773049552982587153
17138139 8 17559943502003542567
18603816 31 12673624669158069420
20505436 4 16984106017979261897
20626108 58 17911782597323049171
21304303 282 17619597599810382392
238 59 18411423920667237281
312425 83 18189887618497927845
3380486 145 17333663678553112618
376196 1 17968089871723842241
44802255 64 17535503575301300092
46194498 28 18189044305816366061
5223283 242 17687171008106328765
550186 7 17460880841525206419
59025328 239 17836347273257137959
5951187 136 17317857211230575541
613672 6 17831022325580692147
6677587 24 17611977808241933037

> <PUBCHEM_SHAPE_MULTIPOLES>
567.08
9.13
5.96
2.45
14.95
7.66
1.37
-9.01
-6.75
-7.37
-1.42
1.99
-0.43
-0.37

> <PUBCHEM_SHAPE_SELFOVERLAP>
1247.56

> <PUBCHEM_SHAPE_VOLUME>
308.5

> <PUBCHEM_COORDINATE_TYPE>
2
5
10

$$$$
49830613
  -OEChem-05102415033D

 56 59  0     0  0  0  0  0  0999 V2000
    0.1714   -2.4953   -1.9980 F   0  0  0  0  0  0  0  0  0  0  0  0
   -2.8311   -4.5911    0.9944 F   0  0  0  0  0  0  0  0  0  0  0  0
   -5.4458   -0.1973   -0.1916 O   0  0  0  0  0  0  0  0  0  0  0  0
   -2.8058    2.0584    0.2876 N   0  0  0  0  0  0  0  0  0  0  0  0
    2.7334    0.5930    0.0406 N   0  0  0  0  0  0  0  0  0  0  0  0
    2.6367   -1.5743   -0.4811 N   0  0  0  0  0  0  0  0  0  0  0  0
   -0.6533    1.1299    0.3879 N   0  0  0  0  0  0  0  0  0  0  0  0
   -1.4490    2.6001    2.1238 N   0  0  0  0  0  0  0  0  0  0  0  0
    5.3164    0.8324   -0.9575 N   0  0  0  0  0  0  0  0  0  0  0  0
   -4.5222    1.6866   -1.4485 C   0  0  0  0  0  0  0  0  0  0  0  0
   -3.0847    1.4003   -0.9501 C   0  0  0  0  0  0  0  0  0  0  0  0
   -5.5882    1.1948   -0.4442 C   0  0  0  0  0  0  0  0  0  0  0  0
   -4.7217    3.1946   -1.6887 C   0  0  0  0  0  0  0  0  0  0  0  0
   -4.7101    0.9513   -2.7920 C   0  0  0  0  0  0  0  0  0  0  0  0
    1.4966    0.1713    0.4387 C   0  0  0  0  0  0  0  0  0  0  0  0
   -1.5752    1.9228    0.9666 C   0  0  0  0  0  0  0  0  0  0  0  0
    1.4609   -1.1671    0.1064 C   0  0  0  0  0  0  0  0  0  0  0  0
    3.3746   -0.4902   -0.5030 C   0  0  0  0  0  0  0  0  0  0  0  0
    0.5100    1.0231    1.0631 C   0  0  0  0  0  0  0  0  0  0  0  0
    3.3724    1.8172    0.0951 C   0  0  0  0  0  0  0  0  0  0  0  0
    4.7136   -0.3260   -1.0100 C   0  0  0  0  0  0  0  0  0  0  0  0
    0.3551   -2.0497    0.3311 C   0  0  0  0  0  0  0  0  0  0  0  0
    4.6280    1.9086   -0.3966 C   0  0  0  0  0  0  0  0  0  0  0  0
    0.7649    1.6653    2.2577 C   0  0  0  0  0  0  0  0  0  0  0  0
   -0.2613    2.4483    2.7456 C   0  0  0  0  0  0  0  0  0  0  0  0
    5.4157   -1.5121   -1.6060 C   0  0  0  0  0  0  0  0  0  0  0  0
   -0.2598   -2.6924   -0.7434 C   0  0  0  0  0  0  0  0  0  0  0  0
   -0.1064   -2.2656    1.6297 C   0  0  0  0  0  0  0  0  0  0  0  0
    5.3821    3.2041   -0.3710 C   0  0  0  0  0  0  0  0  0  0  0  0
   -1.3362   -3.5508   -0.5194 C   0  0  0  0  0  0  0  0  0  0  0  0
   -1.1830   -3.1238    1.8537 C   0  0  0  0  0  0  0  0  0  0  0  0
   -1.7979   -3.7665    0.7791 C   0  0  0  0  0  0  0  0  0  0  0  0
   -2.3665    1.7342   -1.7106 H   0  0  0  0  0  0  0  0  0  0  0  0
   -2.9455    0.3175   -0.8354 H   0  0  0  0  0  0  0  0  0  0  0  0
   -6.5959    1.3633   -0.8412 H   0  0  0  0  0  0  0  0  0  0  0  0
   -5.5157    1.7241    0.5116 H   0  0  0  0  0  0  0  0  0  0  0  0
   -3.9607    3.5899   -2.3709 H   0  0  0  0  0  0  0  0  0  0  0  0
   -5.7022    3.3934   -2.1368 H   0  0  0  0  0  0  0  0  0  0  0  0
   -4.6692    3.7701   -0.7588 H   0  0  0  0  0  0  0  0  0  0  0  0
   -5.7212    1.1019   -3.1870 H   0  0  0  0  0  0  0  0  0  0  0  0
   -4.0027    1.3176   -3.5447 H   0  0  0  0  0  0  0  0  0  0  0  0
   -4.5507   -0.1275   -2.6869 H   0  0  0  0  0  0  0  0  0  0  0  0
   -3.4924    2.6554    0.7324 H   0  0  0  0  0  0  0  0  0  0  0  0
   -6.1439   -0.4462    0.4378 H   0  0  0  0  0  0  0  0  0  0  0  0
    2.8447    2.6606    0.5222 H   0  0  0  0  0  0  0  0  0  0  0  0
    1.6997    1.5671    2.7955 H   0  0  0  0  0  0  0  0  0  0  0  0
   -0.1543    2.9902    3.6792 H   0  0  0  0  0  0  0  0  0  0  0  0
    4.8434   -1.8876   -2.4592 H   0  0  0  0  0  0  0  0  0  0  0  0
    5.5009   -2.3040   -0.8563 H   0  0  0  0  0  0  0  0  0  0  0  0
    6.4176   -1.2342   -1.9447 H   0  0  0  0  0  0  0  0  0  0  0  0
    0.3632   -1.7826    2.4835 H   0  0  0  0  0  0  0  0  0  0  0  0
    6.3043    3.0947    0.2091 H   0  0  0  0  0  0  0  0  0  0  0  0
    4.7979    4.0138    0.0788 H   0  0  0  0  0  0  0  0  0  0  0  0
    5.6475    3.5085   -1.3888 H   0  0  0  0  0  0  0  0  0  0  0  0
   -1.8152   -4.0509   -1.3558 H   0  0  0  0  0  0  0  0  0  0  0  0
   -1.5417   -3.2934    2.8646 H   0  0  0  0  0  0  0  0  0  0  0  0
  1 27  1  0  0  0  0
  2 32  1  0  0  0  0
  3 12  1  0  0  0  0
  3 44  1  0  0  0  0
  4 11  1  0  0  0  0
  4 16  1  0  0  0  0
  4 43  1  0  0  0  0
  5 15  1  0  0  0  0
  5 18  1  0  0  0  0
  5 20  1  0  0  0  0
  6 17  1  0  0  0  0
  6 18  2  0  0  0  0
  7 16  1  0  0  0  0
  7 19  2  0  0  0  0
  8 16  2  0  0  0  0
  8 25  1  0  0  0  0
  9 21  2  0  0  0  0
  9 23  1  0  0  0  0
 10 11  1  0  0  0  0
 10 12  1  0  0  0  0
 10 13  1  0  0  0  0
 10 14  1  0  0  0  0
 11 33  1  0  0  0  0
 11 34  1  0  0  0  0
 12 35  1  0  0  0  0
 12 36  1  0  0  0  0
 13 37  1  0  0  0  0
 13 38  1  0  0  0  0
 13 39  1  0  0  0  0
 14 40  1  0  0  0  0
 14 41  1  0  0  0  0
 14 42  1  0  0  0  0
 15 17  2  0  0  0  0
 15 19  1  0  0  0  0
 17 22  1  0  0  0  0
 18 21  1  0  0  0  0
 19 24  1  0  0  0  0
 20 23  2  0  0  0  0
 20 45  1  0  0  0  0
 21 26  1  0  0  0  0
 22 27  2  0  0  0  0
 22 28  1  0  0  0  0
 23 29  1  0  0  0  0
 24 25  2  0  0  0  0
 24 46  1  0  0  0  0
 25 47  1  0  0  0  0
 26 48  1  0  0  0  0
 26 49  1  0  0  0  0
 26 50  1  0  0  0  0
 27 30  1  0  0  0  0
 28 31  2  0  0  0  0
 28 51  1  0  0  0  0
 29 52  1  0  0  0  0
 29 53  1  0  0  0  0
 29 54  1  0  0  0  0
 30 32  2  0  0  0  0
 30 55  1  0  0  0  0
 31 32  1  0  0  0  0
 31 56  1  0  0  0  0
M  END
> <PUBCHEM_COMPOUND_CID>
49830613

> <PUBCHEM_CONFORMER_RMSD>
0.8

> <PUBCHEM_CONFORMER_DIVERSEORDER>
1
155
243
93
123
248
18
195
210
103
214
177
145
113
148
112
273
285
42
244
76
208
261
278
118
147
152
122
15
239
160
80
120
225
8
282
167
259
73
241
111
128
204
202
137
87
104
53
91
63
19
191
149
223
35
206
143
213
32
97
263
4
6
151
198
146
240
171
201
36
153
255
220
275
193
180
242
50
170
2
218
166
134
92
233
252
179
162
262
110
45
253
221
140
58
165
70
222
126
57
209
224
82
284
174
270
88
276
219
186
283
86
34
85
129
106
266
141
54
10
212
277
17
7
77
158
81
256
121
194
231
139
286
79
217
234
184
154
265
178
250
205
56
100
3
164
49
254
207
229
24
245
99
98
246
51
156
22
115
235
190
226
11
13
237
135
55
274
280
117
232
199
192
176
108
236
216
39
258
74
230
159
46
27
188
197
215
5
20
287
161
94
181
251
272
144
249
228
133
60
31
183
169
69
48
107
196
175
43
9
203
52
260
114
47
84
101
271
268
227
78
29
109
238
168
264
119
68
124
142
182
281
105
33
131
65
127
64
211
132
96
102
83
247
267
61
95
44
59
187
75
257
157
67
90
138
130
185
14
72
71
16
269
116
172
66
40
12
279
25
21
41
173
163
30
38
62
125
28
150
37
189
23
136
200
89
26

> <PUBCHEM_MMFF94_PARTIAL_CHARGES>
37
1 -0.19
11 0.37
12 0.28
15 -0.2
16 0.72
17 0.17
18 0.1
19 0.36
2 -0.19
20 -0.18
21 0.47
22 0.05
23 0.03
24 -0.15
25 0.16
26 0.06
27 0.19
28 -0.15
29 0.14
3 -0.68
30 -0.15
31 -0.15
32 0.19
4 -0.87
43 0.4
44 0.4
45 0.15
46 0.15
47 0.15
5 0.33
51 0.15
55 0.15
56 0.15
6 -0.57
7 -0.62
8 -0.62
9 -0.62

> <PUBCHEM_EFFECTIVE_ROTOR_COUNT>
6

> <PUBCHEM_PHARMACOPHORE_FEATURES>
12
1 3 acceptor
1 3 donor
1 4 donor
1 7 acceptor
1 9 acceptor
3 10 13 14 hydrophobe
3 5 6 18 cation
4 4 7 8 16 cation
5 5 6 15 17 18 rings
6 22 27 28 30 31 32 rings
6 5 9 18 20 21 23 rings
6 7 8 16 19 24 25 rings

> <PUBCHEM_HEAVY_ATOM_COUNT>
32

> <PUBCHEM_ATOM_DEF_STEREO_COUNT>
0

> <PUBCHEM_ATOM_UDEF_STEREO_COUNT>
0

> <PUBCHEM_BOND_DEF_STEREO_COUNT>
0

> <PUBCHEM_BOND_UDEF_STEREO_COUNT>
0

> <PUBCHEM_ISOTOPIC_ATOM_COUNT>
0

> <PUBCHEM_COMPONENT_COUNT>
1

> <PUBCHEM_CACTVS_TAUTO_COUNT>
3

> <PUBCHEM_CONFORMER_ID>
02F85AD500000001

> <PUBCHEM_MMFF94_ENERGY>
90.7653

> <PUBCHEM_FEATURE_SELFOVERLAP>
61.014

> <PUBCHEM_SHAPE_FINGERPRINT>
10688039 33 17829339325217516883
11582403 64 17167856431177821640
12156800 1 18047442776681971249
12553582 1 17558809729843885773
12741549 16 17248353030261696055
12788726 201 17917713444309729616
13402501 40 18411141381346031619
13583140 156 17604446158171431768
14279260 333 18058448691041049254
15775530 1 17696170879171007569
17138139 8 18058427868880601709
17909252 39 17059766711758320678
17980427 23 12974471949738111129
18603816 31 14473906614323609630
19319366 153 18270382902905227831
20587220 17 17767999466708170201
20775438 99 17056640941707693044
21304303 282 17459458038997872176
21344244 181 18131357384103268399
21641784 216 17684955861031896564
238 59 18192713341368080553
3493558 16 17826238672319804293
352729 6 18129962091447605714
4058900 60 18118125771201513125
4258327 124 17751100174340875996
437795 51 18343584062546111521
4409770 3 18342466988206510786
44802255 64 17677354735512601198
484989 97 18341621433605014910
5171179 24 17411330323242943361
5283173 99 18335701710429987682
6376802 137 17059491808540717314

> <PUBCHEM_SHAPE_MULTIPOLES>
608.24
11.13
5.15
2.22
0.72
4.51
-0.47
-8.62
8.53
-2.81
-1.19
-1.43
-0.79
2.08

> <PUBCHEM_SHAPE_SELFOVERLAP>
1328.691

> <PUBCHEM_SHAPE_VOLUME>
333.7

> <PUBCHEM_COORDINATE_TYPE>
2
5
10

$$$$
49830612
  -OEChem-05102415033D

 60 63  0     0  0  0  0  0  0999 V2000
   -0.2861   -2.3474    1.6937 F   0  0  0  0  0  0  0  0  0  0  0  0
    2.7025   -4.7688   -1.0571 F   0  0  0  0  0  0  0  0  0  0  0  0
    5.7840   -0.8724    0.6257 O   0  0  0  0  0  0  0  0  0  0  0  0
   -5.0581   -0.4909    0.7130 O   0  0  0  0  0  0  0  0  0  0  0  0
    3.5578    1.7698   -0.0174 N   0  0  0  0  0  0  0  0  0  0  0  0
   -2.1014    1.1720   -0.4467 N   0  0  0  0  0  0  0  0  0  0  0  0
    1.3393    1.1881   -0.3876 N   0  0  0  0  0  0  0  0  0  0  0  0
   -2.3924   -1.0040   -0.0337 N   0  0  0  0  0  0  0  0  0  0  0  0
    2.5428    2.5797   -1.9439 N   0  0  0  0  0  0  0  0  0  0  0  0
   -4.7341    1.7741    0.2750 N   0  0  0  0  0  0  0  0  0  0  0  0
    5.0125    1.0845    1.8738 C   0  0  0  0  0  0  0  0  0  0  0  0
    3.6091    1.0293    1.2225 C   0  0  0  0  0  0  0  0  0  0  0  0
    6.0966    0.4745    0.9575 C   0  0  0  0  0  0  0  0  0  0  0  0
    5.3994    2.5379    2.2044 C   0  0  0  0  0  0  0  0  0  0  0  0
    4.9516    0.2857    3.1925 C   0  0  0  0  0  0  0  0  0  0  0  0
   -0.9036    0.5791   -0.7275 C   0  0  0  0  0  0  0  0  0  0  0  0
    2.4306    1.8494   -0.8180 C   0  0  0  0  0  0  0  0  0  0  0  0
   -1.1079   -0.7605   -0.4656 C   0  0  0  0  0  0  0  0  0  0  0  0
    0.2600    1.2869   -1.1911 C   0  0  0  0  0  0  0  0  0  0  0  0
   -2.9570    0.1792   -0.0356 C   0  0  0  0  0  0  0  0  0  0  0  0
   -0.1267   -1.7939   -0.6140 C   0  0  0  0  0  0  0  0  0  0  0  0
   -4.2933    0.5500    0.3210 C   0  0  0  0  0  0  0  0  0  0  0  0
   -2.5464    2.4820   -0.5042 C   0  0  0  0  0  0  0  0  0  0  0  0
    0.2450    2.0038   -2.3702 C   0  0  0  0  0  0  0  0  0  0  0  0
    1.4266    2.6361   -2.6997 C   0  0  0  0  0  0  0  0  0  0  0  0
   -6.3825   -0.1254    1.0667 C   0  0  0  0  0  0  0  0  0  0  0  0
   -3.8224    2.7363   -0.1488 C   0  0  0  0  0  0  0  0  0  0  0  0
    0.2554   -2.5623    0.4858 C   0  0  0  0  0  0  0  0  0  0  0  0
    0.4470   -2.0305   -1.8633 C   0  0  0  0  0  0  0  0  0  0  0  0
   -7.3234   -1.2751    0.7397 C   0  0  0  0  0  0  0  0  0  0  0  0
   -6.4243    0.2389    2.5429 C   0  0  0  0  0  0  0  0  0  0  0  0
    1.2113   -3.5672    0.3361 C   0  0  0  0  0  0  0  0  0  0  0  0
    1.4030   -3.0352   -2.0129 C   0  0  0  0  0  0  0  0  0  0  0  0
    1.7851   -3.8036   -0.9131 C   0  0  0  0  0  0  0  0  0  0  0  0
    2.8685    1.4427    1.9196 H   0  0  0  0  0  0  0  0  0  0  0  0
    3.3280   -0.0156    1.0383 H   0  0  0  0  0  0  0  0  0  0  0  0
    7.0708    0.4797    1.4599 H   0  0  0  0  0  0  0  0  0  0  0  0
    6.2013    1.0398    0.0256 H   0  0  0  0  0  0  0  0  0  0  0  0
    4.6352    3.0183    2.8257 H   0  0  0  0  0  0  0  0  0  0  0  0
    6.3456    2.5754    2.7567 H   0  0  0  0  0  0  0  0  0  0  0  0
    5.5280    3.1453    1.3026 H   0  0  0  0  0  0  0  0  0  0  0  0
    5.9268    0.2727    3.6923 H   0  0  0  0  0  0  0  0  0  0  0  0
    4.2288    0.7271    3.8882 H   0  0  0  0  0  0  0  0  0  0  0  0
    4.6515   -0.7539    3.0206 H   0  0  0  0  0  0  0  0  0  0  0  0
    4.3760    2.2674   -0.3470 H   0  0  0  0  0  0  0  0  0  0  0  0
    6.5014   -1.2005    0.0573 H   0  0  0  0  0  0  0  0  0  0  0  0
   -1.8646    3.2599   -0.8221 H   0  0  0  0  0  0  0  0  0  0  0  0
   -0.6246    2.0710   -3.0121 H   0  0  0  0  0  0  0  0  0  0  0  0
    1.5115    3.2215   -3.6089 H   0  0  0  0  0  0  0  0  0  0  0  0
   -6.7516    0.7226    0.4756 H   0  0  0  0  0  0  0  0  0  0  0  0
   -4.2012    3.7523   -0.1798 H   0  0  0  0  0  0  0  0  0  0  0  0
    0.1578   -1.4503   -2.7365 H   0  0  0  0  0  0  0  0  0  0  0  0
   -7.2745   -1.5163   -0.3277 H   0  0  0  0  0  0  0  0  0  0  0  0
   -8.3588   -1.0306    0.9960 H   0  0  0  0  0  0  0  0  0  0  0  0
   -7.0335   -2.1828    1.2804 H   0  0  0  0  0  0  0  0  0  0  0  0
   -5.7681    1.0871    2.7631 H   0  0  0  0  0  0  0  0  0  0  0  0
   -7.4394    0.5002    2.8577 H   0  0  0  0  0  0  0  0  0  0  0  0
   -6.0735   -0.5963    3.1595 H   0  0  0  0  0  0  0  0  0  0  0  0
    1.5090   -4.1653    1.1921 H   0  0  0  0  0  0  0  0  0  0  0  0
    1.8486   -3.2209   -2.9857 H   0  0  0  0  0  0  0  0  0  0  0  0
  1 28  1  0  0  0  0
  2 34  1  0  0  0  0
  3 13  1  0  0  0  0
  3 46  1  0  0  0  0
  4 22  1  0  0  0  0
  4 26  1  0  0  0  0
  5 12  1  0  0  0  0
  5 17  1  0  0  0  0
  5 45  1  0  0  0  0
  6 16  1  0  0  0  0
  6 20  1  0  0  0  0
  6 23  1  0  0  0  0
  7 17  1  0  0  0  0
  7 19  2  0  0  0  0
  8 18  1  0  0  0  0
  8 20  2  0  0  0  0
  9 17  2  0  0  0  0
  9 25  1  0  0  0  0
 10 22  2  0  0  0  0
 10 27  1  0  0  0  0
 11 12  1  0  0  0  0
 11 13  1  0  0  0  0
 11 14  1  0  0  0  0
 11 15  1  0  0  0  0
 12 35  1  0  0  0  0
 12 36  1  0  0  0  0
 13 37  1  0  0  0  0
 13 38  1  0  0  0  0
 14 39  1  0  0  0  0
 14 40  1  0  0  0  0
 14 41  1  0  0  0  0
 15 42  1  0  0  0  0
 15 43  1  0  0  0  0
 15 44  1  0  0  0  0
 16 18  2  0  0  0  0
 16 19  1  0  0  0  0
 18 21  1  0  0  0  0
 19 24  1  0  0  0  0
 20 22  1  0  0  0  0
 21 28  2  0  0  0  0
 21 29  1  0  0  0  0
 23 27  2  0  0  0  0
 23 47  1  0  0  0  0
 24 25  2  0  0  0  0
 24 48  1  0  0  0  0
 25 49  1  0  0  0  0
 26 30  1  0  0  0  0
 26 31  1  0  0  0  0
 26 50  1  0  0  0  0
 27 51  1  0  0  0  0
 28 32  1  0  0  0  0
 29 33  2  0  0  0  0
 29 52  1  0  0  0  0
 30 53  1  0  0  0  0
 30 54  1  0  0  0  0
 30 55  1  0  0  0  0
 31 56  1  0  0  0  0
 31 57  1  0  0  0  0
 31 58  1  0  0  0  0
 32 34  2  0  0  0  0
 32 59  1  0  0  0  0
 33 34  1  0  0  0  0
 33 60  1  0  0  0  0
M  END
> <PUBCHEM_COMPOUND_CID>
49830612

> <PUBCHEM_CONFORMER_RMSD>
1

> <PUBCHEM_CONFORMER_DIVERSEORDER>
1
12
45
55
57
47
30
41
60
8
23
52
4
6
56
11
14
39
50
21
53
25
19
46
37
13
35
54
3
48
49
32
42
44
43
31
9
58
2
5
34
18
33
28
20
26
24
10
22
27
7
59
40
51
15
29
38
16
36
17

> <PUBCHEM_MMFF94_PARTIAL_CHARGES>
38
1 -0.19
10 -0.62
12 0.37
13 0.28
16 -0.2
17 0.72
18 0.17
19 0.36
2 -0.19
20 0.1
21 0.05
22 0.69
23 -0.18
24 -0.15
25 0.16
26 0.28
27 0.02
28 0.19
29 -0.15
3 -0.68
32 -0.15
33 -0.15
34 0.19
4 -0.43
45 0.4
46 0.4
47 0.15
48 0.15
49 0.15
5 -0.87
51 0.15
52 0.15
59 0.15
6 0.33
60 0.15
7 -0.62
8 -0.57
9 -0.62

> <PUBCHEM_EFFECTIVE_ROTOR_COUNT>
8

> <PUBCHEM_PHARMACOPHORE_FEATURES>
12
1 3 acceptor
1 3 donor
1 5 donor
1 7 acceptor
3 11 14 15 hydrophobe
3 26 30 31 hydrophobe
3 6 8 20 cation
4 5 7 9 17 cation
5 6 8 16 18 20 rings
6 21 28 29 32 33 34 rings
6 6 10 20 22 23 27 rings
6 7 9 17 19 24 25 rings

> <PUBCHEM_HEAVY_ATOM_COUNT>
34

> <PUBCHEM_ATOM_DEF_STEREO_COUNT>
0

> <PUBCHEM_ATOM_UDEF_STEREO_COUNT>
0

> <PUBCHEM_BOND_DEF_STEREO_COUNT>
0

> <PUBCHEM_BOND_UDEF_STEREO_COUNT>
0

> <PUBCHEM_ISOTOPIC_ATOM_COUNT>
0

> <PUBCHEM_COMPONENT_COUNT>
1

> <PUBCHEM_CACTVS_TAUTO_COUNT>
3

> <PUBCHEM_CONFORMER_ID>
02F85AD400000001

> <PUBCHEM_MMFF94_ENERGY>
96.1776

> <PUBCHEM_FEATURE_SELFOVERLAP>
61.012

> <PUBCHEM_SHAPE_FINGERPRINT>
11445158 3 17896878949026380765
11607047 141 16914848872237600703
12422481 6 18263348218983689216
12741549 16 16765611999157470394
12788726 201 17472706196314065262
12839892 36 18337110172056207599
13140716 1 17979931715761893005
13402501 40 18339357441276027310
13540713 4 18192430771591733085
13692114 37 18269838773652017031
14028597 1 17489596631856927619
15064986 96 18196074574284456274
15775530 1 17396958190482189364
16110190 28 18115015412274388024
16728300 4 17822834429891472737
16994733 274 15841555193192558401
17913733 40 18202566163964899579
1979834 28 18409733954041434864
20505436 4 17390810108086149484
20554085 129 17988652933664343785
21033648 29 18059000813787410594
21304304 249 17894631478470696107
21792934 111 18263938661888254065
22149856 69 18198369367533034667
22182313 1 18188769419124308885
22956985 138 17971470702691936658
23559900 14 18117852006128714997
23728640 28 18124019398508437162
3411729 13 18269550550832408025
465052 167 17458350766137493993
5104073 3 18197511632224984577
5171179 24 17619327828503872804
5265222 85 18340208596367158132
5385378 56 18201727223312586506
563151 248 18060133271207552382
6679774 75 18187936109860559154

> <PUBCHEM_SHAPE_MULTIPOLES>
643.53
13.94
4.54
2.53
10.98
4.74
0.42
-4.66
13.72
-3.55
-2.23
-2.39
-0.99
1.56

> <PUBCHEM_SHAPE_SELFOVERLAP>
1399.565

> <PUBCHEM_SHAPE_VOLUME>
354.5

> <PUBCHEM_COORDINATE_TYPE>
2
5
10

$$$$
25016361
  -OEChem-05102415033D

 53 56  0     0  0  0  0  0  0999 V2000
   -0.5107   -2.3974   -1.7851 F   0  0  0  0  0  0  0  0  0  0  0  0
    2.2666   -4.8331    1.1670 F   0  0  0  0  0  0  0  0  0  0  0  0
    5.7379    0.4235   -0.7779 O   0  0  0  0  0  0  0  0  0  0  0  0
   -2.3958    1.1728    0.2041 N   0  0  0  0  0  0  0  0  0  0  0  0
   -2.6954   -1.0012   -0.2029 N   0  0  0  0  0  0  0  0  0  0  0  0
    3.3163    1.6786    0.1041 N   0  0  0  0  0  0  0  0  0  0  0  0
    1.0469    1.1378    0.3580 N   0  0  0  0  0  0  0  0  0  0  0  0
   -4.9608    1.8026   -0.6800 N   0  0  0  0  0  0  0  0  0  0  0  0
    2.1756    2.5288    1.9699 N   0  0  0  0  0  0  0  0  0  0  0  0
    4.8217    1.0049   -1.7092 C   0  0  0  0  0  0  0  0  0  0  0  0
   -1.2269    0.5646    0.5636 C   0  0  0  0  0  0  0  0  0  0  0  0
    3.4104    0.9261   -1.1073 C   0  0  0  0  0  0  0  0  0  0  0  0
   -3.2415    0.1906   -0.2482 C   0  0  0  0  0  0  0  0  0  0  0  0
   -1.4361   -0.7740    0.3036 C   0  0  0  0  0  0  0  0  0  0  0  0
   -4.5633    0.5567   -0.6984 C   0  0  0  0  0  0  0  0  0  0  0  0
   -0.0774    1.2625    1.0930 C   0  0  0  0  0  0  0  0  0  0  0  0
    4.8771    0.1766   -2.9968 C   0  0  0  0  0  0  0  0  0  0  0  0
    5.2559    2.4452   -1.9941 C   0  0  0  0  0  0  0  0  0  0  0  0
   -0.4828   -1.8207    0.5222 C   0  0  0  0  0  0  0  0  0  0  0  0
   -2.8182    2.4883    0.2224 C   0  0  0  0  0  0  0  0  0  0  0  0
   -5.4873   -0.5196   -1.1918 C   0  0  0  0  0  0  0  0  0  0  0  0
    2.1205    1.7871    0.8472 C   0  0  0  0  0  0  0  0  0  0  0  0
   -0.1526    1.9927    2.2615 C   0  0  0  0  0  0  0  0  0  0  0  0
   -4.0645    2.7553   -0.2126 C   0  0  0  0  0  0  0  0  0  0  0  0
   -0.0466   -2.6068   -0.5443 C   0  0  0  0  0  0  0  0  0  0  0  0
    0.0097   -2.0521    1.8065 C   0  0  0  0  0  0  0  0  0  0  0  0
   -5.0897   -0.9493   -2.5852 C   0  0  0  0  0  0  0  0  0  0  0  0
    1.0165    2.6107    2.6556 C   0  0  0  0  0  0  0  0  0  0  0  0
    0.8819   -3.6246   -0.3265 C   0  0  0  0  0  0  0  0  0  0  0  0
    0.9382   -3.0701    2.0242 C   0  0  0  0  0  0  0  0  0  0  0  0
    1.3743   -3.8563    0.9578 C   0  0  0  0  0  0  0  0  0  0  0  0
    3.1692   -0.1232   -0.8932 H   0  0  0  0  0  0  0  0  0  0  0  0
    2.6804    1.2972   -1.8377 H   0  0  0  0  0  0  0  0  0  0  0  0
    4.6231   -0.8709   -2.7978 H   0  0  0  0  0  0  0  0  0  0  0  0
    4.1886    0.5634   -3.7553 H   0  0  0  0  0  0  0  0  0  0  0  0
    5.8891    0.1732   -3.4179 H   0  0  0  0  0  0  0  0  0  0  0  0
    5.3600    3.0291   -1.0738 H   0  0  0  0  0  0  0  0  0  0  0  0
    6.2425    2.4643   -2.4720 H   0  0  0  0  0  0  0  0  0  0  0  0
    4.5466    2.9545   -2.6546 H   0  0  0  0  0  0  0  0  0  0  0  0
    4.1339    2.1206    0.5073 H   0  0  0  0  0  0  0  0  0  0  0  0
   -2.1447    3.2590    0.5732 H   0  0  0  0  0  0  0  0  0  0  0  0
   -6.5138   -0.1366   -1.1997 H   0  0  0  0  0  0  0  0  0  0  0  0
   -5.4570   -1.3727   -0.5055 H   0  0  0  0  0  0  0  0  0  0  0  0
   -1.0585    2.0805    2.8483 H   0  0  0  0  0  0  0  0  0  0  0  0
   -4.4295    3.7768   -0.2157 H   0  0  0  0  0  0  0  0  0  0  0  0
    6.6294    0.4720   -1.1634 H   0  0  0  0  0  0  0  0  0  0  0  0
   -0.3226   -1.4579    2.6545 H   0  0  0  0  0  0  0  0  0  0  0  0
   -5.0886   -0.0987   -3.2753 H   0  0  0  0  0  0  0  0  0  0  0  0
   -5.7926   -1.6962   -2.9674 H   0  0  0  0  0  0  0  0  0  0  0  0
   -4.0883   -1.3913   -2.6038 H   0  0  0  0  0  0  0  0  0  0  0  0
    1.0553    3.2053    3.5620 H   0  0  0  0  0  0  0  0  0  0  0  0
    1.2218   -4.2365   -1.1568 H   0  0  0  0  0  0  0  0  0  0  0  0
    1.3207   -3.2519    3.0243 H   0  0  0  0  0  0  0  0  0  0  0  0
  1 25  1  0  0  0  0
  2 31  1  0  0  0  0
  3 10  1  0  0  0  0
  3 46  1  0  0  0  0
  4 11  1  0  0  0  0
  4 13  1  0  0  0  0
  4 20  1  0  0  0  0
  5 13  2  0  0  0  0
  5 14  1  0  0  0  0
  6 12  1  0  0  0  0
  6 22  1  0  0  0  0
  6 40  1  0  0  0  0
  7 16  2  0  0  0  0
  7 22  1  0  0  0  0
  8 15  2  0  0  0  0
  8 24  1  0  0  0  0
  9 22  2  0  0  0  0
  9 28  1  0  0  0  0
 10 12  1  0  0  0  0
 10 17  1  0  0  0  0
 10 18  1  0  0  0  0
 11 14  2  0  0  0  0
 11 16  1  0  0  0  0
 12 32  1  0  0  0  0
 12 33  1  0  0  0  0
 13 15  1  0  0  0  0
 14 19  1  0  0  0  0
 15 21  1  0  0  0  0
 16 23  1  0  0  0  0
 17 34  1  0  0  0  0
 17 35  1  0  0  0  0
 17 36  1  0  0  0  0
 18 37  1  0  0  0  0
 18 38  1  0  0  0  0
 18 39  1  0  0  0  0
 19 25  2  0  0  0  0
 19 26  1  0  0  0  0
 20 24  2  0  0  0  0
 20 41  1  0  0  0  0
 21 27  1  0  0  0  0
 21 42  1  0  0  0  0
 21 43  1  0  0  0  0
 23 28  2  0  0  0  0
 23 44  1  0  0  0  0
 24 45  1  0  0  0  0
 25 29  1  0  0  0  0
 26 30  2  0  0  0  0
 26 47  1  0  0  0  0
 27 48  1  0  0  0  0
 27 49  1  0  0  0  0
 27 50  1  0  0  0  0
 28 51  1  0  0  0  0
 29 31  2  0  0  0  0
 29 52  1  0  0  0  0
 30 31  1  0  0  0  0
 30 53  1  0  0  0  0
M  END
> <PUBCHEM_COMPOUND_CID>
25016361

> <PUBCHEM_CONFORMER_RMSD>
0.8

> <PUBCHEM_CONFORMER_DIVERSEORDER>
1
133
154
202
7
112
31
88
105
57
18
61
5
102
66
129
65
49
119
139
64
96
86
19
148
183
200
114
198
143
177
51
216
4
35
173
101
72
23
140
42
171
149
187
220
48
189
211
108
93
3
168
98
60
217
83
193
99
54
156
55
225
56
58
134
190
52
184
214
95
166
196
128
174
150
152
203
106
81
195
125
75
208
191
176
26
85
132
126
155
127
120
122
197
110
181
30
207
188
141
103
178
212
206
111
116
159
218
115
205
107
53
94
22
165
169
87
92
209
164
180
118
153
44
14
20
192
82
113
167
2
224
15
121
157
185
163
59
39
147
222
11
170
104
32
210
109
138
201
204
37
145
80
213
12
215
186
84
199
219
130
25
136
135
100
175
70
160
151
8
161
89
90
46
142
117
162
50
76
16
10
172
123
34
131
71
24
27
144
194
182
63
6
146
158
40
29
79
28
124
221
223
77
179
91
67
78
74
47
97
9
62
73
21
43
41
68
33
137
17
36
69
38
45
13

> <PUBCHEM_MMFF94_PARTIAL_CHARGES>
37
1 -0.19
10 0.28
11 -0.2
12 0.37
13 0.1
14 0.17
15 0.47
16 0.36
19 0.05
2 -0.19
20 -0.18
21 0.06
22 0.72
23 -0.15
24 0.02
25 0.19
26 -0.15
28 0.16
29 -0.15
3 -0.68
30 -0.15
31 0.19
4 0.33
40 0.4
41 0.15
44 0.15
45 0.15
46 0.4
47 0.15
5 -0.57
51 0.15
52 0.15
53 0.15
6 -0.87
7 -0.62
8 -0.62
9 -0.62

> <PUBCHEM_EFFECTIVE_ROTOR_COUNT>
6

> <PUBCHEM_PHARMACOPHORE_FEATURES>
13
1 27 hydrophobe
1 3 acceptor
1 3 donor
1 6 donor
1 7 acceptor
1 8 acceptor
3 10 17 18 hydrophobe
3 4 5 13 cation
4 6 7 9 22 cation
5 4 5 11 13 14 rings
6 19 25 26 29 30 31 rings
6 4 8 13 15 20 24 rings
6 7 9 16 22 23 28 rings

> <PUBCHEM_HEAVY_ATOM_COUNT>
31

> <PUBCHEM_ATOM_DEF_STEREO_COUNT>
0

> <PUBCHEM_ATOM_UDEF_STEREO_COUNT>
0

> <PUBCHEM_BOND_DEF_STEREO_COUNT>
0

> <PUBCHEM_BOND_UDEF_STEREO_COUNT>
0

> <PUBCHEM_ISOTOPIC_ATOM_COUNT>
0

> <PUBCHEM_COMPONENT_COUNT>
1

> <PUBCHEM_CACTVS_TAUTO_COUNT>
6

> <PUBCHEM_CONFORMER_ID>
017DB82900000001

> <PUBCHEM_MMFF94_ENERGY>
83.5345

> <PUBCHEM_FEATURE_SELFOVERLAP>
66.091

> <PUBCHEM_SHAPE_FINGERPRINT>
10190108 129 18267036123471889315
10675989 125 18339652127197912184
107951 10 17604158133053148418
11578080 2 17390264496936359193
12788726 201 17177705031663234419
13257819 37 18042412493984575519
133893 2 17970052362697971025
13540713 5 18196646303588867065
140371 6 16611360959378269299
14713325 29 17969241060529414665
14931854 50 18271537429037870420
15163728 17 17604448322096152021
15463212 79 17969223524457753312
15775530 1 17553202512025089408
20465049 17 18201438120922155871
20642791 178 18121494657638424977
21133410 230 17609256563955152306
21781051 124 18189335839464461971
22393880 68 18130495393125965781
23366157 5 17970897878592195683
23419403 2 17319620844396310987
23559900 14 17987801963885041808
3298306 158 18411982459847507498
44802255 64 17750533930310698494
474144 1 18195244416993029534
5265222 85 18264498450223590188
57527295 17 18202569470667782525
6669772 16 17986092214343831824
81228 2 17261016144866079155

> <PUBCHEM_SHAPE_MULTIPOLES>
587.66
10.37
4.88
2.55
0.83
5.39
0.3
-6.69
10.84
2.38
-2.4
1.93
-0.47
-1.57

> <PUBCHEM_SHAPE_SELFOVERLAP>
1287.734

> <PUBCHEM_SHAPE_VOLUME>
320.3

> <PUBCHEM_COORDINATE_TYPE>
2
5
10

$$$$
49830608
  -OEChem-05102415033D

 57 60  0     0  0  0  0  0  0999 V2000
    2.7577   -4.8857   -1.1967 F   0  0  0  0  0  0  0  0  0  0  0  0
   -6.9151   -1.5741    0.0539 F   0  0  0  0  0  0  0  0  0  0  0  0
   -8.1040   -0.3268    1.3914 F   0  0  0  0  0  0  0  0  0  0  0  0
   -6.3644   -1.4049    2.1574 F   0  0  0  0  0  0  0  0  0  0  0  0
    6.0906   -1.3697    0.8083 O   0  0  0  0  0  0  0  0  0  0  0  0
   -4.6668   -0.0086    0.4489 O   0  0  0  0  0  0  0  0  0  0  0  0
    4.1405    1.4925    0.2123 N   0  0  0  0  0  0  0  0  0  0  0  0
   -1.5225    1.4338   -0.4917 N   0  0  0  0  0  0  0  0  0  0  0  0
    1.8994    1.1340   -0.2837 N   0  0  0  0  0  0  0  0  0  0  0  0
   -2.0245   -0.7245   -0.2087 N   0  0  0  0  0  0  0  0  0  0  0  0
    3.2944    2.4856   -1.7100 N   0  0  0  0  0  0  0  0  0  0  0  0
   -4.1229    2.2364    0.1472 N   0  0  0  0  0  0  0  0  0  0  0  0
    5.4369    0.5851    2.1250 C   0  0  0  0  0  0  0  0  0  0  0  0
    4.0668    0.6900    1.4119 C   0  0  0  0  0  0  0  0  0  0  0  0
    6.5052   -0.0749    1.2249 C   0  0  0  0  0  0  0  0  0  0  0  0
    5.9348    1.9792    2.5493 C   0  0  0  0  0  0  0  0  0  0  0  0
    5.2427   -0.2691    3.3952 C   0  0  0  0  0  0  0  0  0  0  0  0
   -0.3699    0.7490   -0.7520 C   0  0  0  0  0  0  0  0  0  0  0  0
    3.0642    1.7138   -0.6307 C   0  0  0  0  0  0  0  0  0  0  0  0
   -0.7043   -0.5777   -0.5712 C   0  0  0  0  0  0  0  0  0  0  0  0
    0.8726    1.3702   -1.1265 C   0  0  0  0  0  0  0  0  0  0  0  0
   -2.4812    0.5038   -0.1716 C   0  0  0  0  0  0  0  0  0  0  0  0
    0.1875   -1.6874   -0.7323 C   0  0  0  0  0  0  0  0  0  0  0  0
    0.9775    2.1429   -2.2650 C   0  0  0  0  0  0  0  0  0  0  0  0
   -1.8463    2.7801   -0.4981 C   0  0  0  0  0  0  0  0  0  0  0  0
   -3.7949    0.9765    0.1465 C   0  0  0  0  0  0  0  0  0  0  0  0
    2.2248    2.6806   -2.5091 C   0  0  0  0  0  0  0  0  0  0  0  0
   -3.1103    3.1314   -0.1849 C   0  0  0  0  0  0  0  0  0  0  0  0
    0.7993   -1.9174   -1.9648 C   0  0  0  0  0  0  0  0  0  0  0  0
    0.4442   -2.5378    0.3432 C   0  0  0  0  0  0  0  0  0  0  0  0
    1.6675   -2.9977   -2.1216 C   0  0  0  0  0  0  0  0  0  0  0  0
    1.3123   -3.6181    0.1863 C   0  0  0  0  0  0  0  0  0  0  0  0
    1.9239   -3.8481   -1.0461 C   0  0  0  0  0  0  0  0  0  0  0  0
   -5.9690    0.4578    0.7642 C   0  0  0  0  0  0  0  0  0  0  0  0
   -6.8465   -0.7203    1.0987 C   0  0  0  0  0  0  0  0  0  0  0  0
    3.3333    1.1340    2.0976 H   0  0  0  0  0  0  0  0  0  0  0  0
    3.7034   -0.3146    1.1600 H   0  0  0  0  0  0  0  0  0  0  0  0
    7.4510   -0.1831    1.7683 H   0  0  0  0  0  0  0  0  0  0  0  0
    6.7039    0.5239    0.3300 H   0  0  0  0  0  0  0  0  0  0  0  0
    5.1874    2.4958    3.1619 H   0  0  0  0  0  0  0  0  0  0  0  0
    6.8532    1.9031    3.1430 H   0  0  0  0  0  0  0  0  0  0  0  0
    6.1596    2.6162    1.6877 H   0  0  0  0  0  0  0  0  0  0  0  0
    6.1879   -0.3953    3.9351 H   0  0  0  0  0  0  0  0  0  0  0  0
    4.5294    0.2013    4.0817 H   0  0  0  0  0  0  0  0  0  0  0  0
    4.8602   -1.2673    3.1551 H   0  0  0  0  0  0  0  0  0  0  0  0
    5.0144    1.9294   -0.0547 H   0  0  0  0  0  0  0  0  0  0  0  0
    6.8025   -1.7332    0.2546 H   0  0  0  0  0  0  0  0  0  0  0  0
    0.1489    2.3206   -2.9393 H   0  0  0  0  0  0  0  0  0  0  0  0
   -1.0840    3.5075   -0.7443 H   0  0  0  0  0  0  0  0  0  0  0  0
    2.4045    3.3002   -3.3812 H   0  0  0  0  0  0  0  0  0  0  0  0
   -3.3957    4.1780   -0.1778 H   0  0  0  0  0  0  0  0  0  0  0  0
    0.6070   -1.2727   -2.8191 H   0  0  0  0  0  0  0  0  0  0  0  0
   -0.0225   -2.3718    1.3113 H   0  0  0  0  0  0  0  0  0  0  0  0
    2.1427   -3.1782   -3.0813 H   0  0  0  0  0  0  0  0  0  0  0  0
    1.5130   -4.2800    1.0235 H   0  0  0  0  0  0  0  0  0  0  0  0
   -5.9331    1.1289    1.6306 H   0  0  0  0  0  0  0  0  0  0  0  0
   -6.3986    0.9884   -0.0936 H   0  0  0  0  0  0  0  0  0  0  0  0
  1 33  1  0  0  0  0
  2 35  1  0  0  0  0
  3 35  1  0  0  0  0
  4 35  1  0  0  0  0
  5 15  1  0  0  0  0
  5 47  1  0  0  0  0
  6 26  1  0  0  0  0
  6 34  1  0  0  0  0
  7 14  1  0  0  0  0
  7 19  1  0  0  0  0
  7 46  1  0  0  0  0
  8 18  1  0  0  0  0
  8 22  1  0  0  0  0
  8 25  1  0  0  0  0
  9 19  1  0  0  0  0
  9 21  2  0  0  0  0
 10 20  1  0  0  0  0
 10 22  2  0  0  0  0
 11 19  2  0  0  0  0
 11 27  1  0  0  0  0
 12 26  2  0  0  0  0
 12 28  1  0  0  0  0
 13 14  1  0  0  0  0
 13 15  1  0  0  0  0
 13 16  1  0  0  0  0
 13 17  1  0  0  0  0
 14 36  1  0  0  0  0
 14 37  1  0  0  0  0
 15 38  1  0  0  0  0
 15 39  1  0  0  0  0
 16 40  1  0  0  0  0
 16 41  1  0  0  0  0
 16 42  1  0  0  0  0
 17 43  1  0  0  0  0
 17 44  1  0  0  0  0
 17 45  1  0  0  0  0
 18 20  2  0  0  0  0
 18 21  1  0  0  0  0
 20 23  1  0  0  0  0
 21 24  1  0  0  0  0
 22 26  1  0  0  0  0
 23 29  2  0  0  0  0
 23 30  1  0  0  0  0
 24 27  2  0  0  0  0
 24 48  1  0  0  0  0
 25 28  2  0  0  0  0
 25 49  1  0  0  0  0
 27 50  1  0  0  0  0
 28 51  1  0  0  0  0
 29 31  1  0  0  0  0
 29 52  1  0  0  0  0
 30 32  2  0  0  0  0
 30 53  1  0  0  0  0
 31 33  2  0  0  0  0
 31 54  1  0  0  0  0
 32 33  1  0  0  0  0
 32 55  1  0  0  0  0
 34 35  1  0  0  0  0
 34 56  1  0  0  0  0
 34 57  1  0  0  0  0
M  END
> <PUBCHEM_COMPOUND_CID>
49830608

> <PUBCHEM_CONFORMER_RMSD>
1

> <PUBCHEM_CONFORMER_DIVERSEORDER>
1
67
40
53
18
20
25
27
54
60
45
51
43
24
35
6
39
52
61
63
48
32
12
57
50
38
5
19
41
17
4
42
69
46
30
21
44
64
56
62
16
8
58
2
15
11
47
26
28
3
65
68
23
13
10
36
59
14
34
55
66
9
22
49
33
7
37
31
29

> <PUBCHEM_MMFF94_PARTIAL_CHARGES>
42
1 -0.19
10 -0.57
11 -0.62
12 -0.62
14 0.37
15 0.28
18 -0.2
19 0.72
2 -0.34
20 0.17
21 0.36
22 0.1
23 0.05
24 -0.15
25 -0.18
26 0.69
27 0.16
28 0.02
29 -0.15
3 -0.34
30 -0.15
31 -0.15
32 -0.15
33 0.19
34 0.28
35 1.02
4 -0.34
46 0.4
47 0.4
48 0.15
49 0.15
5 -0.68
50 0.15
51 0.15
52 0.15
53 0.15
54 0.15
55 0.15
6 -0.43
7 -0.87
8 0.33
9 -0.62

> <PUBCHEM_EFFECTIVE_ROTOR_COUNT>
9

> <PUBCHEM_PHARMACOPHORE_FEATURES>
11
1 5 acceptor
1 5 donor
1 7 donor
1 9 acceptor
3 13 16 17 hydrophobe
3 8 10 22 cation
4 7 9 11 19 cation
5 8 10 18 20 22 rings
6 23 29 30 31 32 33 rings
6 8 12 22 25 26 28 rings
6 9 11 19 21 24 27 rings

> <PUBCHEM_HEAVY_ATOM_COUNT>
35

> <PUBCHEM_ATOM_DEF_STEREO_COUNT>
0

> <PUBCHEM_ATOM_UDEF_STEREO_COUNT>
0

> <PUBCHEM_BOND_DEF_STEREO_COUNT>
0

> <PUBCHEM_BOND_UDEF_STEREO_COUNT>
0

> <PUBCHEM_ISOTOPIC_ATOM_COUNT>
0

> <PUBCHEM_COMPONENT_COUNT>
1

> <PUBCHEM_CACTVS_TAUTO_COUNT>
3

> <PUBCHEM_CONFORMER_ID>
02F85AD000000001

> <PUBCHEM_MMFF94_ENERGY>
96.5804

> <PUBCHEM_FEATURE_SELFOVERLAP>
55.937

> <PUBCHEM_SHAPE_FINGERPRINT>
10050765 1 18265068938145471845
11445158 3 18042117833585380877
11607047 141 16628585522219110447
11719270 70 18335989752823144191
11963148 33 18264781024833761047
12422481 6 18192131721561062464
12522641 24 17560808684257693810
12741549 16 16478222732521792426
12788726 201 17689436405375022678
12839892 36 18410009965983346853
13140716 1 18053392282231139125
13533116 47 17386007333536822593
13540713 4 18194964037612865861
13692114 37 18271245031638358231
14028597 1 17346885519966334779
15064986 96 18197764523883376674
16728300 4 17895736431558305136
16994733 274 15482670208240017307
17913733 40 18060701680375564915
1979834 28 18411419497077684634
20505436 4 17608667329350271764
20554085 129 17846223292766470976
20771845 140 18271814566139997731
21033648 29 17916007119056025570
21304304 249 17967534579596467275
21585482 310 17385736793999840475
21792934 111 18338522942083680329
22149856 69 18199211576154293425
22956985 138 18045500812068718722
23559900 14 18119538639633003405
27425 322 16592277685464670948
465052 167 17676490574511112565
5104073 3 18127702530754604569
5265222 85 18341331172127478188
563151 248 17917704725600342454
59755656 215 18265353809886809063
6679774 75 18261398866958337306

> <PUBCHEM_SHAPE_MULTIPOLES>
649.56
15.81
4.52
2.49
17.31
4.21
0.64
-0.79
16.42
-2.76
-2.71
-3.49
-0.39
1.67

> <PUBCHEM_SHAPE_SELFOVERLAP>
1418.157

> <PUBCHEM_SHAPE_VOLUME>
356.1

> <PUBCHEM_COORDINATE_TYPE>
2
5
10

$$$$
49830617
  -OEChem-05102415033D

 54 57  0     0  0  0  0  0  0999 V2000
    2.3795   -4.8439   -0.7309 F   0  0  0  0  0  0  0  0  0  0  0  0
    5.4151   -0.7209    0.3992 O   0  0  0  0  0  0  0  0  0  0  0  0
   -5.3903   -0.7419    1.3717 O   0  0  0  0  0  0  0  0  0  0  0  0
    3.0314    1.7824   -0.2346 N   0  0  0  0  0  0  0  0  0  0  0  0
   -2.6127    0.9428   -0.1442 N   0  0  0  0  0  0  0  0  0  0  0  0
    0.8175    1.0925   -0.3760 N   0  0  0  0  0  0  0  0  0  0  0  0
   -2.7743   -1.2070    0.4405 N   0  0  0  0  0  0  0  0  0  0  0  0
    1.8290    2.4125   -2.1202 N   0  0  0  0  0  0  0  0  0  0  0  0
   -5.2018    1.4961    0.7533 N   0  0  0  0  0  0  0  0  0  0  0  0
    4.6633    1.2905    1.5701 C   0  0  0  0  0  0  0  0  0  0  0  0
    3.2154    1.1357    1.0446 C   0  0  0  0  0  0  0  0  0  0  0  0
    5.6949    0.6572    0.6100 C   0  0  0  0  0  0  0  0  0  0  0  0
    4.7446    0.5872    2.9411 C   0  0  0  0  0  0  0  0  0  0  0  0
    5.0123    2.7776    1.7662 C   0  0  0  0  0  0  0  0  0  0  0  0
   -1.4170    0.3766   -0.4833 C   0  0  0  0  0  0  0  0  0  0  0  0
    1.8405    1.7615   -0.9412 C   0  0  0  0  0  0  0  0  0  0  0  0
   -0.3268    1.0925   -1.0908 C   0  0  0  0  0  0  0  0  0  0  0  0
   -1.5410   -0.9472   -0.1137 C   0  0  0  0  0  0  0  0  0  0  0  0
   -3.3881   -0.0491    0.4047 C   0  0  0  0  0  0  0  0  0  0  0  0
   -0.5311   -1.9510   -0.2726 C   0  0  0  0  0  0  0  0  0  0  0  0
   -0.4687    1.7214   -2.3109 C   0  0  0  0  0  0  0  0  0  0  0  0
   -3.1173    2.2276   -0.2541 C   0  0  0  0  0  0  0  0  0  0  0  0
   -4.7058    0.2960    0.8461 C   0  0  0  0  0  0  0  0  0  0  0  0
    0.6536    2.3721   -2.7814 C   0  0  0  0  0  0  0  0  0  0  0  0
   -0.0479   -2.2590   -1.5445 C   0  0  0  0  0  0  0  0  0  0  0  0
   -0.0308   -2.6201    0.8443 C   0  0  0  0  0  0  0  0  0  0  0  0
   -4.3701    2.4588    0.1890 C   0  0  0  0  0  0  0  0  0  0  0  0
    0.9352   -3.2362   -1.6993 C   0  0  0  0  0  0  0  0  0  0  0  0
    0.9523   -3.5974    0.6895 C   0  0  0  0  0  0  0  0  0  0  0  0
    1.4353   -3.9053   -0.5822 C   0  0  0  0  0  0  0  0  0  0  0  0
   -6.6963   -0.4020    1.8096 C   0  0  0  0  0  0  0  0  0  0  0  0
    2.5166    1.5701    1.7715 H   0  0  0  0  0  0  0  0  0  0  0  0
    2.9659    0.0704    0.9569 H   0  0  0  0  0  0  0  0  0  0  0  0
    6.7056    0.7353    1.0271 H   0  0  0  0  0  0  0  0  0  0  0  0
    5.6989    1.1573   -0.3641 H   0  0  0  0  0  0  0  0  0  0  0  0
    5.7568    0.6470    3.3568 H   0  0  0  0  0  0  0  0  0  0  0  0
    4.0622    1.0502    3.6631 H   0  0  0  0  0  0  0  0  0  0  0  0
    4.4769   -0.4726    2.8670 H   0  0  0  0  0  0  0  0  0  0  0  0
    4.2809    3.2725    2.4150 H   0  0  0  0  0  0  0  0  0  0  0  0
    5.9977    2.8903    2.2330 H   0  0  0  0  0  0  0  0  0  0  0  0
    5.0407    3.3226    0.8171 H   0  0  0  0  0  0  0  0  0  0  0  0
    3.7977    2.2854   -0.6653 H   0  0  0  0  0  0  0  0  0  0  0  0
    6.0976   -1.0620   -0.2036 H   0  0  0  0  0  0  0  0  0  0  0  0
   -1.3896    1.7094   -2.8806 H   0  0  0  0  0  0  0  0  0  0  0  0
   -2.4980    3.0056   -0.6810 H   0  0  0  0  0  0  0  0  0  0  0  0
    0.6388    2.8932   -3.7326 H   0  0  0  0  0  0  0  0  0  0  0  0
   -0.4296   -1.7564   -2.4301 H   0  0  0  0  0  0  0  0  0  0  0  0
   -0.3947   -2.3909    1.8432 H   0  0  0  0  0  0  0  0  0  0  0  0
   -4.7939    3.4550    0.1201 H   0  0  0  0  0  0  0  0  0  0  0  0
    1.3105   -3.4776   -2.6893 H   0  0  0  0  0  0  0  0  0  0  0  0
    1.3425   -4.1181    1.5589 H   0  0  0  0  0  0  0  0  0  0  0  0
   -6.6620    0.3431    2.6114 H   0  0  0  0  0  0  0  0  0  0  0  0
   -7.3140   -0.0538    0.9751 H   0  0  0  0  0  0  0  0  0  0  0  0
   -7.1611   -1.3061    2.2141 H   0  0  0  0  0  0  0  0  0  0  0  0
  1 30  1  0  0  0  0
  2 12  1  0  0  0  0
  2 43  1  0  0  0  0
  3 23  1  0  0  0  0
  3 31  1  0  0  0  0
  4 11  1  0  0  0  0
  4 16  1  0  0  0  0
  4 42  1  0  0  0  0
  5 15  1  0  0  0  0
  5 19  1  0  0  0  0
  5 22  1  0  0  0  0
  6 16  1  0  0  0  0
  6 17  2  0  0  0  0
  7 18  1  0  0  0  0
  7 19  2  0  0  0  0
  8 16  2  0  0  0  0
  8 24  1  0  0  0  0
  9 23  2  0  0  0  0
  9 27  1  0  0  0  0
 10 11  1  0  0  0  0
 10 12  1  0  0  0  0
 10 13  1  0  0  0  0
 10 14  1  0  0  0  0
 11 32  1  0  0  0  0
 11 33  1  0  0  0  0
 12 34  1  0  0  0  0
 12 35  1  0  0  0  0
 13 36  1  0  0  0  0
 13 37  1  0  0  0  0
 13 38  1  0  0  0  0
 14 39  1  0  0  0  0
 14 40  1  0  0  0  0
 14 41  1  0  0  0  0
 15 17  1  0  0  0  0
 15 18  2  0  0  0  0
 17 21  1  0  0  0  0
 18 20  1  0  0  0  0
 19 23  1  0  0  0  0
 20 25  2  0  0  0  0
 20 26  1  0  0  0  0
 21 24  2  0  0  0  0
 21 44  1  0  0  0  0
 22 27  2  0  0  0  0
 22 45  1  0  0  0  0
 24 46  1  0  0  0  0
 25 28  1  0  0  0  0
 25 47  1  0  0  0  0
 26 29  2  0  0  0  0
 26 48  1  0  0  0  0
 27 49  1  0  0  0  0
 28 30  2  0  0  0  0
 28 50  1  0  0  0  0
 29 30  1  0  0  0  0
 29 51  1  0  0  0  0
 31 52  1  0  0  0  0
 31 53  1  0  0  0  0
 31 54  1  0  0  0  0
M  END
> <PUBCHEM_COMPOUND_CID>
49830617

> <PUBCHEM_CONFORMER_RMSD>
1

> <PUBCHEM_CONFORMER_DIVERSEORDER>
1
7
42
46
23
18
20
40
24
28
16
29
39
48
19
21
38
34
43
11
25
35
5
36
2
10
30
32
22
26
27
31
37
47
8
3
4
33
45
44
41
9
17
15
6
13
12
14

> <PUBCHEM_MMFF94_PARTIAL_CHARGES>
38
1 -0.19
11 0.37
12 0.28
15 -0.2
16 0.72
17 0.36
18 0.17
19 0.1
2 -0.68
20 0.05
21 -0.15
22 -0.18
23 0.69
24 0.16
25 -0.15
26 -0.15
27 0.02
28 -0.15
29 -0.15
3 -0.43
30 0.19
31 0.28
4 -0.87
42 0.4
43 0.4
44 0.15
45 0.15
46 0.15
47 0.15
48 0.15
49 0.15
5 0.33
50 0.15
51 0.15
6 -0.62
7 -0.57
8 -0.62
9 -0.62

> <PUBCHEM_EFFECTIVE_ROTOR_COUNT>
7

> <PUBCHEM_PHARMACOPHORE_FEATURES>
11
1 2 acceptor
1 2 donor
1 4 donor
1 6 acceptor
3 10 13 14 hydrophobe
3 5 7 19 cation
4 4 6 8 16 cation
5 5 7 15 18 19 rings
6 20 25 26 28 29 30 rings
6 5 9 19 22 23 27 rings
6 6 8 16 17 21 24 rings

> <PUBCHEM_HEAVY_ATOM_COUNT>
31

> <PUBCHEM_ATOM_DEF_STEREO_COUNT>
0

> <PUBCHEM_ATOM_UDEF_STEREO_COUNT>
0

> <PUBCHEM_BOND_DEF_STEREO_COUNT>
0

> <PUBCHEM_BOND_UDEF_STEREO_COUNT>
0

> <PUBCHEM_ISOTOPIC_ATOM_COUNT>
0

> <PUBCHEM_COMPONENT_COUNT>
1

> <PUBCHEM_CACTVS_TAUTO_COUNT>
3

> <PUBCHEM_CONFORMER_ID>
02F85AD900000001

> <PUBCHEM_MMFF94_ENERGY>
94.1351

> <PUBCHEM_FEATURE_SELFOVERLAP>
55.937

> <PUBCHEM_SHAPE_FINGERPRINT>
11552529 35 17691663994705986432
11582403 64 17131825482311631580
11607047 141 16914008836880167619
12293681 160 11167953471317888508
12422481 6 18261382304856627080
12553582 1 17532352327610471248
12633257 1 17313106388314991395
12741549 16 16980099234367454595
12788726 201 17400091153959589630
12839892 36 18336553836526703331
12925494 130 18124873465429555513
13004483 165 17050468455291587494
13140716 1 17979373168228928697
13402501 40 18338237047380147030
13540713 4 18190747428069342437
13692114 37 18269281321430846755
14020679 6 17630595924312954360
14739800 52 17560251206683335289
14840074 17 18040988588214991980
150020 26 17758925196922036658
15064986 96 18267008471485844714
15420108 30 18342446015865361071
15775530 1 17467611725040008684
16110190 28 18115301298071683400
16994733 274 15985112920494174489
17913733 40 18201726137181596643
1813 80 16877660158653955868
1979834 28 18408611357011987251
20505436 4 17174079881850435220
20554085 129 18131081462677247241
21033648 29 18130217281261122466
22149856 69 18125191371241381259
22182313 1 17825101511457299213
23419403 2 17903910059302103845
23559900 14 18116730512900483335
23728640 28 18122900104034514114
3411729 13 18341050705581508139
3493558 16 17626667098520154936
465052 167 17386015013138171497
5104073 3 18196390130485933641
5171179 24 17689699879769379405
5265222 85 18339370776970087948
5385378 56 18271535199585697187

> <PUBCHEM_SHAPE_MULTIPOLES>
589.07
11.74
4.72
2.27
3.04
5.9
-0.35
-6.74
11.13
-3.04
-1.74
-1.45
-1.11
1.42

> <PUBCHEM_SHAPE_SELFOVERLAP>
1288.177

> <PUBCHEM_SHAPE_VOLUME>
322.8

> <PUBCHEM_COORDINATE_TYPE>
2
5
10

$$$$
49830619
  -OEChem-05102415033D

 55 58  0     0  0  0  0  0  0999 V2000
   -2.3749    4.8479   -0.7364 F   0  0  0  0  0  0  0  0  0  0  0  0
   -5.4209    0.7373    0.4130 O   0  0  0  0  0  0  0  0  0  0  0  0
   -3.0478   -1.7760   -0.2210 N   0  0  0  0  0  0  0  0  0  0  0  0
    2.5996   -0.9547   -0.1558 N   0  0  0  0  0  0  0  0  0  0  0  0
   -0.8323   -1.0938   -0.3733 N   0  0  0  0  0  0  0  0  0  0  0  0
    2.7697    1.1937    0.4193 N   0  0  0  0  0  0  0  0  0  0  0  0
   -1.8547   -2.4167   -2.1089 N   0  0  0  0  0  0  0  0  0  0  0  0
    5.1732   -1.5073    0.7268 N   0  0  0  0  0  0  0  0  0  0  0  0
    5.5284    0.7057    1.3916 N   0  0  0  0  0  0  0  0  0  0  0  0
   -4.6712   -1.2724    1.5881 C   0  0  0  0  0  0  0  0  0  0  0  0
   -3.2248   -1.1242    1.0566 C   0  0  0  0  0  0  0  0  0  0  0  0
   -5.7044   -0.6391    0.6298 C   0  0  0  0  0  0  0  0  0  0  0  0
   -4.7450   -0.5640    2.9569 C   0  0  0  0  0  0  0  0  0  0  0  0
   -5.0243   -2.7576    1.7909 C   0  0  0  0  0  0  0  0  0  0  0  0
    1.4042   -0.3856   -0.4917 C   0  0  0  0  0  0  0  0  0  0  0  0
   -1.8595   -1.7615   -0.9323 C   0  0  0  0  0  0  0  0  0  0  0  0
    1.5335    0.9382   -0.1276 C   0  0  0  0  0  0  0  0  0  0  0  0
    0.3094   -1.1001   -1.0924 C   0  0  0  0  0  0  0  0  0  0  0  0
    3.3826    0.0333    0.3863 C   0  0  0  0  0  0  0  0  0  0  0  0
    0.5267    1.9452   -0.2844 C   0  0  0  0  0  0  0  0  0  0  0  0
    4.7286   -0.2703    0.8447 C   0  0  0  0  0  0  0  0  0  0  0  0
    3.0908   -2.2387   -0.2665 C   0  0  0  0  0  0  0  0  0  0  0  0
    0.4444   -1.7338   -2.3109 C   0  0  0  0  0  0  0  0  0  0  0  0
   -0.6818   -2.3824   -2.7747 C   0  0  0  0  0  0  0  0  0  0  0  0
    4.3413   -2.4680    0.1715 C   0  0  0  0  0  0  0  0  0  0  0  0
    0.0382    2.2512   -1.5545 C   0  0  0  0  0  0  0  0  0  0  0  0
    0.0349    2.6197    0.8332 C   0  0  0  0  0  0  0  0  0  0  0  0
   -0.9420    3.2317   -1.7073 C   0  0  0  0  0  0  0  0  0  0  0  0
   -0.9453    3.6003    0.6805 C   0  0  0  0  0  0  0  0  0  0  0  0
   -1.4337    3.9062   -0.5897 C   0  0  0  0  0  0  0  0  0  0  0  0
    6.8572    0.4359    1.8382 C   0  0  0  0  0  0  0  0  0  0  0  0
   -2.5247   -1.5584    1.7823 H   0  0  0  0  0  0  0  0  0  0  0  0
   -2.9722   -0.0600    0.9642 H   0  0  0  0  0  0  0  0  0  0  0  0
   -6.7137   -0.7124    1.0511 H   0  0  0  0  0  0  0  0  0  0  0  0
   -5.7138   -1.1426   -0.3425 H   0  0  0  0  0  0  0  0  0  0  0  0
   -5.7558   -0.6191    3.3767 H   0  0  0  0  0  0  0  0  0  0  0  0
   -4.0613   -1.0266    3.6779 H   0  0  0  0  0  0  0  0  0  0  0  0
   -4.4742    0.4947    2.8780 H   0  0  0  0  0  0  0  0  0  0  0  0
   -4.2921   -3.2526    2.4387 H   0  0  0  0  0  0  0  0  0  0  0  0
   -6.0083   -2.8655    2.2618 H   0  0  0  0  0  0  0  0  0  0  0  0
   -5.0581   -3.3059    0.8438 H   0  0  0  0  0  0  0  0  0  0  0  0
   -3.8174   -2.2780   -0.6471 H   0  0  0  0  0  0  0  0  0  0  0  0
   -6.1046    1.0785   -0.1884 H   0  0  0  0  0  0  0  0  0  0  0  0
    2.4670   -3.0158   -0.6877 H   0  0  0  0  0  0  0  0  0  0  0  0
    1.3630   -1.7266   -2.8843 H   0  0  0  0  0  0  0  0  0  0  0  0
   -0.6723   -2.9069   -3.7242 H   0  0  0  0  0  0  0  0  0  0  0  0
    4.7636   -3.4650    0.1051 H   0  0  0  0  0  0  0  0  0  0  0  0
    0.4133    1.7444   -2.4405 H   0  0  0  0  0  0  0  0  0  0  0  0
    0.4031    2.3922    1.8308 H   0  0  0  0  0  0  0  0  0  0  0  0
    5.1818    1.6566    1.4822 H   0  0  0  0  0  0  0  0  0  0  0  0
   -1.3214    3.4715   -2.6962 H   0  0  0  0  0  0  0  0  0  0  0  0
   -1.3290    4.1252    1.5503 H   0  0  0  0  0  0  0  0  0  0  0  0
    7.4867    0.0810    1.0159 H   0  0  0  0  0  0  0  0  0  0  0  0
    7.3110    1.3498    2.2338 H   0  0  0  0  0  0  0  0  0  0  0  0
    6.8616   -0.3110    2.6386 H   0  0  0  0  0  0  0  0  0  0  0  0
  1 30  1  0  0  0  0
  2 12  1  0  0  0  0
  2 43  1  0  0  0  0
  3 11  1  0  0  0  0
  3 16  1  0  0  0  0
  3 42  1  0  0  0  0
  4 15  1  0  0  0  0
  4 19  1  0  0  0  0
  4 22  1  0  0  0  0
  5 16  1  0  0  0  0
  5 18  2  0  0  0  0
  6 17  1  0  0  0  0
  6 19  2  0  0  0  0
  7 16  2  0  0  0  0
  7 24  1  0  0  0  0
  8 21  2  0  0  0  0
  8 25  1  0  0  0  0
  9 21  1  0  0  0  0
  9 31  1  0  0  0  0
  9 50  1  0  0  0  0
 10 11  1  0  0  0  0
 10 12  1  0  0  0  0
 10 13  1  0  0  0  0
 10 14  1  0  0  0  0
 11 32  1  0  0  0  0
 11 33  1  0  0  0  0
 12 34  1  0  0  0  0
 12 35  1  0  0  0  0
 13 36  1  0  0  0  0
 13 37  1  0  0  0  0
 13 38  1  0  0  0  0
 14 39  1  0  0  0  0
 14 40  1  0  0  0  0
 14 41  1  0  0  0  0
 15 17  2  0  0  0  0
 15 18  1  0  0  0  0
 17 20  1  0  0  0  0
 18 23  1  0  0  0  0
 19 21  1  0  0  0  0
 20 26  2  0  0  0  0
 20 27  1  0  0  0  0
 22 25  2  0  0  0  0
 22 44  1  0  0  0  0
 23 24  2  0  0  0  0
 23 45  1  0  0  0  0
 24 46  1  0  0  0  0
 25 47  1  0  0  0  0
 26 28  1  0  0  0  0
 26 48  1  0  0  0  0
 27 29  2  0  0  0  0
 27 49  1  0  0  0  0
 28 30  2  0  0  0  0
 28 51  1  0  0  0  0
 29 30  1  0  0  0  0
 29 52  1  0  0  0  0
 31 53  1  0  0  0  0
 31 54  1  0  0  0  0
 31 55  1  0  0  0  0
M  END
> <PUBCHEM_COMPOUND_CID>
49830619

> <PUBCHEM_CONFORMER_RMSD>
1

> <PUBCHEM_CONFORMER_DIVERSEORDER>
1
7
19
38
27
3
25
15
45
22
24
4
34
40
43
16
30
26
44
41
32
37
29
39
10
13
12
31
2
17
36
20
18
28
23
33
6
5
42
14
21
11
8
35
9

> <PUBCHEM_MMFF94_PARTIAL_CHARGES>
39
1 -0.19
11 0.37
12 0.28
15 -0.2
16 0.72
17 0.17
18 0.36
19 0.1
2 -0.68
20 0.05
21 0.58
22 -0.18
23 -0.15
24 0.16
25 0.02
26 -0.15
27 -0.15
28 -0.15
29 -0.15
3 -0.87
30 0.19
31 0.37
4 0.33
42 0.4
43 0.4
44 0.15
45 0.15
46 0.15
47 0.15
48 0.15
49 0.15
5 -0.62
50 0.4
51 0.15
52 0.15
6 -0.57
7 -0.62
8 -0.62
9 -0.82

> <PUBCHEM_EFFECTIVE_ROTOR_COUNT>
7

> <PUBCHEM_PHARMACOPHORE_FEATURES>
13
1 2 acceptor
1 2 donor
1 3 donor
1 5 acceptor
1 9 donor
3 10 13 14 hydrophobe
3 4 6 19 cation
3 8 9 21 cation
4 3 5 7 16 cation
5 4 6 15 17 19 rings
6 20 26 27 28 29 30 rings
6 4 8 19 21 22 25 rings
6 5 7 16 18 23 24 rings

> <PUBCHEM_HEAVY_ATOM_COUNT>
31

> <PUBCHEM_ATOM_DEF_STEREO_COUNT>
0

> <PUBCHEM_ATOM_UDEF_STEREO_COUNT>
0

> <PUBCHEM_BOND_DEF_STEREO_COUNT>
0

> <PUBCHEM_BOND_UDEF_STEREO_COUNT>
0

> <PUBCHEM_ISOTOPIC_ATOM_COUNT>
0

> <PUBCHEM_COMPONENT_COUNT>
1

> <PUBCHEM_CACTVS_TAUTO_COUNT>
6

> <PUBCHEM_CONFORMER_ID>
02F85ADB00000001

> <PUBCHEM_MMFF94_ENERGY>
91.2935

> <PUBCHEM_FEATURE_SELFOVERLAP>
66.123

> <PUBCHEM_SHAPE_FINGERPRINT>
10190108 129 18336000705053306162
10688039 33 18333454235606333941
11387372 6 16964050724500834338
11456790 92 18113913671837758449
11578080 2 16985141878376002122
11828532 37 17677910096865147411
12422481 6 18271817765441987315
12741549 16 17531793775049349725
12788726 201 18188223043328297880
13140716 1 17977366559513512250
13402501 40 18339079268997330909
13540713 4 18198056981365516046
13583140 156 18189902105454726351
13965767 371 17917723387017036466
14790565 3 17617099548031852932
14840074 17 18271252719723801812
15420108 30 17628915922211614756
15775530 1 17480320979956033967
16993438 75 18265883671729121701
17980427 23 17489306464198829135
19319366 153 17397286287418848125
20739085 24 18192995056884428640
20775438 99 13120563122921654163
21033648 29 17560540446797477107
21927370 108 17749380461304330604
22182313 1 17843408375754272310
238918 7 18127979603162749407
3380486 145 18341316886126937127
5104073 3 18192694671904984986
513202 73 18264776458834905130
58260988 114 17605272870503610018
5951187 136 14185119859339182339
6009941 240 17530951467706619663
7097593 13 18194406825472306447

> <PUBCHEM_SHAPE_MULTIPOLES>
589.96
11.88
4.71
2.28
3.9
5.87
-0.3
-6.55
11.46
-3.04
-1.79
-1.48
-1.1
1.45

> <PUBCHEM_SHAPE_SELFOVERLAP>
1286.574

> <PUBCHEM_SHAPE_VOLUME>
323.8

> <PUBCHEM_COORDINATE_TYPE>
2
5
10

$$$$
