87405928
  -OEChem-05102415093D

 36 38  0     0  0  0  0  0  0999 V2000
    5.4085   -1.9065   -0.4649 Cl  0  0  0  0  0  0  0  0  0  0  0  0
   -1.8343   -2.8766   -0.8732 S   0  0  0  0  0  0  0  0  0  0  0  0
    0.8077    0.3640    1.2343 O   0  0  0  0  0  0  0  0  0  0  0  0
    2.4184   -1.2691    0.9416 N   0  0  0  0  0  0  0  0  0  0  0  0
    0.2796   -1.6777    0.2033 N   0  0  0  0  0  0  0  0  0  0  0  0
   -1.8703   -0.5047    0.1539 N   0  0  0  0  0  0  0  0  0  0  0  0
   -6.2942    2.0128    0.0962 N   0  0  0  0  0  0  0  0  0  0  0  0
    3.5067   -0.5439    1.5434 C   0  0  0  0  0  0  0  0  0  0  0  0
    4.2215    0.3235    0.5579 C   0  0  0  0  0  0  0  0  0  0  0  0
    5.0996   -0.2101   -0.3852 C   0  0  0  0  0  0  0  0  0  0  0  0
    3.9921    1.6987    0.5977 C   0  0  0  0  0  0  0  0  0  0  0  0
   -3.1448   -0.7827   -0.3004 C   0  0  0  0  0  0  0  0  0  0  0  0
   -4.2127    0.1653   -0.1659 C   0  0  0  0  0  0  0  0  0  0  0  0
   -1.0958   -1.5373   -0.0951 C   0  0  0  0  0  0  0  0  0  0  0  0
    1.1207   -0.7526    0.8279 C   0  0  0  0  0  0  0  0  0  0  0  0
    5.7485    0.6315   -1.2887 C   0  0  0  0  0  0  0  0  0  0  0  0
    4.6409    2.5405   -0.3058 C   0  0  0  0  0  0  0  0  0  0  0  0
   -3.3194   -2.0189   -0.8863 C   0  0  0  0  0  0  0  0  0  0  0  0
    5.5191    2.0069   -1.2490 C   0  0  0  0  0  0  0  0  0  0  0  0
   -5.5242   -0.2757   -0.0272 C   0  0  0  0  0  0  0  0  0  0  0  0
   -3.9408    1.5289   -0.1736 C   0  0  0  0  0  0  0  0  0  0  0  0
   -6.5197    0.6797    0.0993 C   0  0  0  0  0  0  0  0  0  0  0  0
   -5.0072    2.4037   -0.0404 C   0  0  0  0  0  0  0  0  0  0  0  0
    4.1895   -1.2688    2.0001 H   0  0  0  0  0  0  0  0  0  0  0  0
    3.1104    0.0551    2.3725 H   0  0  0  0  0  0  0  0  0  0  0  0
    2.6081   -2.1918    0.5627 H   0  0  0  0  0  0  0  0  0  0  0  0
    3.3103    2.1321    1.3247 H   0  0  0  0  0  0  0  0  0  0  0  0
    0.6809   -2.5672   -0.0805 H   0  0  0  0  0  0  0  0  0  0  0  0
    6.4357    0.2315   -2.0299 H   0  0  0  0  0  0  0  0  0  0  0  0
    4.4621    3.6113   -0.2752 H   0  0  0  0  0  0  0  0  0  0  0  0
   -4.2022   -2.4635   -1.3246 H   0  0  0  0  0  0  0  0  0  0  0  0
    6.0241    2.6624   -1.9525 H   0  0  0  0  0  0  0  0  0  0  0  0
   -5.7964   -1.3254    0.0024 H   0  0  0  0  0  0  0  0  0  0  0  0
   -2.9342    1.9193   -0.2835 H   0  0  0  0  0  0  0  0  0  0  0  0
   -7.5585    0.3880    0.2141 H   0  0  0  0  0  0  0  0  0  0  0  0
   -4.8486    3.4771   -0.0413 H   0  0  0  0  0  0  0  0  0  0  0  0
  1 10  1  0  0  0  0
  2 14  1  0  0  0  0
  2 18  1  0  0  0  0
  3 15  2  0  0  0  0
  4  8  1  0  0  0  0
  4 15  1  0  0  0  0
  4 26  1  0  0  0  0
  5 14  1  0  0  0  0
  5 15  1  0  0  0  0
  5 28  1  0  0  0  0
  6 12  1  0  0  0  0
  6 14  2  0  0  0  0
  7 22  2  0  0  0  0
  7 23  1  0  0  0  0
  8  9  1  0  0  0  0
  8 24  1  0  0  0  0
  8 25  1  0  0  0  0
  9 10  1  0  0  0  0
  9 11  2  0  0  0  0
 10 16  2  0  0  0  0
 11 17  1  0  0  0  0
 11 27  1  0  0  0  0
 12 13  1  0  0  0  0
 12 18  2  0  0  0  0
 13 20  2  0  0  0  0
 13 21  1  0  0  0  0
 16 19  1  0  0  0  0
 16 29  1  0  0  0  0
 17 19  2  0  0  0  0
 17 30  1  0  0  0  0
 18 31  1  0  0  0  0
 19 32  1  0  0  0  0
 20 22  1  0  0  0  0
 20 33  1  0  0  0  0
 21 23  2  0  0  0  0
 21 34  1  0  0  0  0
 22 35  1  0  0  0  0
 23 36  1  0  0  0  0
M  END
> <PUBCHEM_COMPOUND_CID>
87405928

> <PUBCHEM_CONFORMER_RMSD>
0.8

> <PUBCHEM_CONFORMER_DIVERSEORDER>
1
14
42
34
57
94
125
129
54
50
41
39
139
53
19
65
130
74
106
29
72
55
110
81
118
124
31
33
7
103
108
44
136
30
107
47
121
80
133
9
131
40
102
87
71
69
21
96
117
89
137
63
67
66
132
20
23
16
76
114
79
91
135
84
27
18
98
105
77
60
112
12
113
37
70
43
46
58
127
86
28
73
64
11
36
134
120
10
56
38
116
24
82
17
101
99
52
122
49
85
100
115
83
126
3
35
32
88
97
45
95
75
13
22
104
92
25
128
90
15
48
93
78
8
2
111
138
6
51
123
68
119
59
109
61
62
26
4
5

> <PUBCHEM_MMFF94_PARTIAL_CHARGES>
34
1 -0.18
10 0.18
11 -0.15
12 0.17
13 0.05
14 0.44
15 0.69
16 -0.15
17 -0.15
18 -0.11
19 -0.15
2 -0.08
20 -0.15
21 -0.15
22 0.16
23 0.16
26 0.37
27 0.15
28 0.37
29 0.15
3 -0.57
30 0.15
31 0.15
32 0.15
33 0.15
34 0.15
35 0.15
36 0.15
4 -0.73
5 -0.49
6 -0.57
7 -0.62
8 0.44
9 -0.14

> <PUBCHEM_EFFECTIVE_ROTOR_COUNT>
6

> <PUBCHEM_PHARMACOPHORE_FEATURES>
7
1 3 acceptor
1 4 donor
1 5 donor
1 7 acceptor
5 2 6 12 14 18 rings
6 7 13 20 21 22 23 rings
6 9 10 11 16 17 19 rings

> <PUBCHEM_HEAVY_ATOM_COUNT>
23

> <PUBCHEM_ATOM_DEF_STEREO_COUNT>
0

> <PUBCHEM_ATOM_UDEF_STEREO_COUNT>
0

> <PUBCHEM_BOND_DEF_STEREO_COUNT>
0

> <PUBCHEM_BOND_UDEF_STEREO_COUNT>
0

> <PUBCHEM_ISOTOPIC_ATOM_COUNT>
0

> <PUBCHEM_COMPONENT_COUNT>
1

> <PUBCHEM_CACTVS_TAUTO_COUNT>
5

> <PUBCHEM_CONFORMER_ID>
0535B56800000001

> <PUBCHEM_MMFF94_ENERGY>
50.3585

> <PUBCHEM_FEATURE_SELFOVERLAP>
35.573

> <PUBCHEM_SHAPE_FINGERPRINT>
10 15 12829494770336701950
10378564 45 18202568376210601844
10554248 39 18265313037725857975
10670039 82 18059018284965810424
10753850 27 10735872881393140247
11056379 131 18196932386623121927
11796584 16 13398617351770994319
11991303 11 17489302036224983719
12342043 65 14274843344981110178
12390115 104 18131073715088813483
12596602 18 17385721383741526337
12616971 3 18040981948068978170
13885169 86 18260837028757347829
13914758 101 12751251289779845315
13955234 65 16878210975641089354
14251751 18 8790888471043596308
14251757 5 18272653488694439985
14251764 75 16011025227122288988
14528608 73 18335982042824071896
1454969 45 18411131451597518407
14790565 3 18410012109256585857
14840074 17 17894632556444340109
14848178 5 11167941359536402524
14933364 13 18407764728900808299
15001296 14 18188207718511303412
15183329 4 17489314074479762408
15188451 53 9871475287808414452
15210252 30 18041562567940562860
15575132 122 18187641363244668893
17349148 13 11743566534668690470
17844677 252 18337677519856121674
17857418 61 10159699101028584169
17959699 21 18409168844183687354
18222031 100 12031794694965678074
19315092 285 12390966540921329406
19377110 9 11819279992248017474
19611394 137 18042701657844160363
21315764 119 18201449060388612118
22061861 79 15698000751324677748
2215653 11 16774081777912799142
23559900 14 17346309445120377362
249057 3 18340769248312719942
29717793 49 13830132793119835698
3004659 81 18343018857714085714
32948 21 18202281416334086762
3298306 158 17561081414749822078
3472631 163 18410576205675975950
38570 142 18114189626911217250
393628 194 17463701140834172436
394071 54 16371014057018295014
4058900 60 18268999687650460395
5104073 3 17385997429763537114
59682541 52 16056600902731145461
633830 44 18260259776810900218
6438161 24 9583226229224529577
7808743 9 18411694405218263259
8988823 20 9727628402398364026
960060 61 15625947586009955416

> <PUBCHEM_SHAPE_MULTIPOLES>
453.26
18.1
2.92
1.11
3.45
0.07
-0.06
10
3.35
0.55
0.71
-1.39
-0.07
-1.25

> <PUBCHEM_SHAPE_SELFOVERLAP>
958.635

> <PUBCHEM_SHAPE_VOLUME>
255.8

> <PUBCHEM_COORDINATE_TYPE>
2
5
10

$$$$
53492329
  -OEChem-05102415093D

 36 38  0     0  0  0  0  0  0999 V2000
   -1.6798    2.8450   -1.0301 S   0  0  0  0  0  0  0  0  0  0  0  0
    1.0418   -0.2223    1.2301 O   0  0  0  0  0  0  0  0  0  0  0  0
    2.6141    1.4280    0.8422 N   0  0  0  0  0  0  0  0  0  0  0  0
    0.4644    1.7506    0.0966 N   0  0  0  0  0  0  0  0  0  0  0  0
   -1.6596    0.5306    0.1212 N   0  0  0  0  0  0  0  0  0  0  0  0
   -6.0283   -2.0800    0.2231 N   0  0  0  0  0  0  0  0  0  0  0  0
    3.7218    0.7583    1.4755 C   0  0  0  0  0  0  0  0  0  0  0  0
    4.4850   -0.0994    0.5236 C   0  0  0  0  0  0  0  0  0  0  0  0
   -2.9416    0.7564   -0.3407 C   0  0  0  0  0  0  0  0  0  0  0  0
   -3.9884   -0.2055   -0.1496 C   0  0  0  0  0  0  0  0  0  0  0  0
    4.1247   -1.4350    0.3452 C   0  0  0  0  0  0  0  0  0  0  0  0
    5.5592    0.4342   -0.1881 C   0  0  0  0  0  0  0  0  0  0  0  0
   -0.9090    1.5652   -0.1860 C   0  0  0  0  0  0  0  0  0  0  0  0
    1.3283    0.8779    0.7640 C   0  0  0  0  0  0  0  0  0  0  0  0
   -3.1458    1.9558   -0.9901 C   0  0  0  0  0  0  0  0  0  0  0  0
    4.8388   -2.2372   -0.5449 C   0  0  0  0  0  0  0  0  0  0  0  0
    6.2734   -0.3678   -1.0783 C   0  0  0  0  0  0  0  0  0  0  0  0
    5.9131   -1.7035   -1.2567 C   0  0  0  0  0  0  0  0  0  0  0  0
   -5.3083    0.2144   -0.0261 C   0  0  0  0  0  0  0  0  0  0  0  0
   -3.6874   -1.5616   -0.0870 C   0  0  0  0  0  0  0  0  0  0  0  0
   -6.2824   -0.7537    0.1571 C   0  0  0  0  0  0  0  0  0  0  0  0
   -4.7340   -2.4503    0.0989 C   0  0  0  0  0  0  0  0  0  0  0  0
    3.3526    0.1613    2.3180 H   0  0  0  0  0  0  0  0  0  0  0  0
    4.3702    1.5321    1.9025 H   0  0  0  0  0  0  0  0  0  0  0  0
    2.7819    2.3328    0.4132 H   0  0  0  0  0  0  0  0  0  0  0  0
    3.2927   -1.8661    0.8952 H   0  0  0  0  0  0  0  0  0  0  0  0
    5.8489    1.4738   -0.0596 H   0  0  0  0  0  0  0  0  0  0  0  0
    0.8449    2.6324   -0.2359 H   0  0  0  0  0  0  0  0  0  0  0  0
   -4.0399    2.3575   -1.4464 H   0  0  0  0  0  0  0  0  0  0  0  0
    4.5589   -3.2775   -0.6832 H   0  0  0  0  0  0  0  0  0  0  0  0
    7.1097    0.0477   -1.6329 H   0  0  0  0  0  0  0  0  0  0  0  0
   -5.6028    1.2583   -0.0503 H   0  0  0  0  0  0  0  0  0  0  0  0
   -2.6732   -1.9358   -0.1826 H   0  0  0  0  0  0  0  0  0  0  0  0
    6.4693   -2.3280   -1.9497 H   0  0  0  0  0  0  0  0  0  0  0  0
   -7.3266   -0.4784    0.2630 H   0  0  0  0  0  0  0  0  0  0  0  0
   -4.5525   -3.5187    0.1535 H   0  0  0  0  0  0  0  0  0  0  0  0
  1 13  1  0  0  0  0
  1 15  1  0  0  0  0
  2 14  2  0  0  0  0
  3  7  1  0  0  0  0
  3 14  1  0  0  0  0
  3 25  1  0  0  0  0
  4 13  1  0  0  0  0
  4 14  1  0  0  0  0
  4 28  1  0  0  0  0
  5  9  1  0  0  0  0
  5 13  2  0  0  0  0
  6 21  2  0  0  0  0
  6 22  1  0  0  0  0
  7  8  1  0  0  0  0
  7 23  1  0  0  0  0
  7 24  1  0  0  0  0
  8 11  2  0  0  0  0
  8 12  1  0  0  0  0
  9 10  1  0  0  0  0
  9 15  2  0  0  0  0
 10 19  2  0  0  0  0
 10 20  1  0  0  0  0
 11 16  1  0  0  0  0
 11 26  1  0  0  0  0
 12 17  2  0  0  0  0
 12 27  1  0  0  0  0
 15 29  1  0  0  0  0
 16 18  2  0  0  0  0
 16 30  1  0  0  0  0
 17 18  1  0  0  0  0
 17 31  1  0  0  0  0
 18 34  1  0  0  0  0
 19 21  1  0  0  0  0
 19 32  1  0  0  0  0
 20 22  2  0  0  0  0
 20 33  1  0  0  0  0
 21 35  1  0  0  0  0
 22 36  1  0  0  0  0
M  END
> <PUBCHEM_COMPOUND_CID>
53492329

> <PUBCHEM_CONFORMER_RMSD>
0.8

> <PUBCHEM_CONFORMER_DIVERSEORDER>
1
19
16
53
28
44
9
21
54
46
10
13
42
15
41
26
52
33
51
32
6
31
47
11
40
12
55
43
8
5
37
18
29
39
30
38
7
50
4
45
20
25
48
17
22
36
35
23
27
49
14
2
3
24
34

> <PUBCHEM_MMFF94_PARTIAL_CHARGES>
34
1 -0.08
10 0.05
11 -0.15
12 -0.15
13 0.44
14 0.69
15 -0.11
16 -0.15
17 -0.15
18 -0.15
19 -0.15
2 -0.57
20 -0.15
21 0.16
22 0.16
25 0.37
26 0.15
27 0.15
28 0.37
29 0.15
3 -0.73
30 0.15
31 0.15
32 0.15
33 0.15
34 0.15
35 0.15
36 0.15
4 -0.49
5 -0.57
6 -0.62
7 0.44
8 -0.14
9 0.17

> <PUBCHEM_EFFECTIVE_ROTOR_COUNT>
6

> <PUBCHEM_PHARMACOPHORE_FEATURES>
7
1 2 acceptor
1 3 donor
1 4 donor
1 6 acceptor
5 1 5 9 13 15 rings
6 6 10 19 20 21 22 rings
6 8 11 12 16 17 18 rings

> <PUBCHEM_HEAVY_ATOM_COUNT>
22

> <PUBCHEM_ATOM_DEF_STEREO_COUNT>
0

> <PUBCHEM_ATOM_UDEF_STEREO_COUNT>
0

> <PUBCHEM_BOND_DEF_STEREO_COUNT>
0

> <PUBCHEM_BOND_UDEF_STEREO_COUNT>
0

> <PUBCHEM_ISOTOPIC_ATOM_COUNT>
0

> <PUBCHEM_COMPONENT_COUNT>
1

> <PUBCHEM_CACTVS_TAUTO_COUNT>
5

> <PUBCHEM_CONFORMER_ID>
03303A6900000001

> <PUBCHEM_MMFF94_ENERGY>
47.8201

> <PUBCHEM_FEATURE_SELFOVERLAP>
35.572

> <PUBCHEM_SHAPE_FINGERPRINT>
10042902 136 18336546139665883703
10692045 39 11671518767648435548
11056379 131 18261389993091271101
11089746 13 9223232936118543920
11128504 68 17167866344405114268
11524674 6 17131830976155078415
117089 54 17342959053145517430
12596602 18 14764335080905811103
12633257 1 15554441937676118613
12760667 363 18272931627056613485
13402501 40 18342460343670778830
13533116 47 17703789262517640536
13551218 46 18272367611793352607
13673619 4 18343866619079276912
13690498 29 18260266321934559445
13782708 43 18060412538897970719
13911987 19 14273745027069138369
13914758 101 16343418415685461009
13955234 65 17702934968222537856
14123256 34 18260834847383187339
14216079 64 18411978088093286495
14251732 14 18260552221049039108
14251751 18 18410860953502175190
14251757 5 18114467841638933546
14251764 30 18272933838268458161
14251764 38 10737284615310569702
14341114 176 18130787892819436681
14347332 77 18260823757213080912
14420673 8 18412549812643749035
14556957 393 15864072035793447487
14617045 38 18411983554864071618
14767858 380 17022904562118817248
14951699 99 10663516228925577066
15131766 46 15695434590408177841
15352257 5 18343023285097309158
15537594 2 17894907413203086003
15799311 1 18269856262288379904
17844677 252 18341615901893158584
1813 80 17603577556432475485
18608769 82 18341047506253183814
20157964 124 12107781900469192440
20621476 21 18343024388877465646
21150785 3 17821733853591627604
21267235 1 18260551173694197483
21315759 148 18202275926991434112
21315763 76 14779556686280146204
21623969 137 17632580431490382726
22765269 38 12179850519798659454
22950370 63 18413110545840138272
2297311 6 18407760331055004101
23016692 55 18408044021854817069
2303208 19 18272368667959499504
23424784 1240 18130796594871883358
23522609 53 18195560084110250304
23559900 14 18410565202281551609
268830 7 14404601252203203256
2838139 119 8214146231094954875
3004659 81 18040714804918034100
3089732 80 18413952780257977390
33382 64 18131354102990333834
335352 9 18261104185357150677
4058900 60 17333934149677223217
437815 12 18272649065368949873
439807 62 18337112268021847206
444735 86 18335126579786596818
46194498 28 18408884062388724700
465052 167 17846783997037247390
497634 4 18340491075532837441
5104073 3 17987790818312332376
59755656 215 18336260163579316271
59755656 520 18053946156708271737
6898599 12 17750789939894224133
7237137 82 17530955852947753429
8217 86 18407763642158011790
8863177 126 18273492399082008822

> <PUBCHEM_SHAPE_MULTIPOLES>
430.81
17.77
2.73
1.09
4.94
0
-0.03
11.55
2.82
-2.07
0.64
1.27
-0.2
1.89

> <PUBCHEM_SHAPE_SELFOVERLAP>
918.659

> <PUBCHEM_SHAPE_VOLUME>
240.7

> <PUBCHEM_COORDINATE_TYPE>
2
5
10

$$$$
53492330
  -OEChem-05102415093D

 40 42  0     0  0  0  0  0  0999 V2000
   -2.4475   -2.8399   -1.2197 S   0  0  0  0  0  0  0  0  0  0  0  0
    4.8121    2.7793    0.0650 O   0  0  0  0  0  0  0  0  0  0  0  0
    0.5584   -0.2724    1.2895 O   0  0  0  0  0  0  0  0  0  0  0  0
    1.9405   -2.0608    0.8023 N   0  0  0  0  0  0  0  0  0  0  0  0
   -0.2160   -2.0809    0.0088 N   0  0  0  0  0  0  0  0  0  0  0  0
   -2.1877   -0.6298    0.0958 N   0  0  0  0  0  0  0  0  0  0  0  0
   -6.2320    2.4523    0.3312 N   0  0  0  0  0  0  0  0  0  0  0  0
    3.9792   -0.7398    0.6188 C   0  0  0  0  0  0  0  0  0  0  0  0
    3.1040   -1.5692    1.4961 C   0  0  0  0  0  0  0  0  0  0  0  0
    3.9872    0.6485    0.7541 C   0  0  0  0  0  0  0  0  0  0  0  0
    4.7892   -1.3520   -0.3378 C   0  0  0  0  0  0  0  0  0  0  0  0
    4.8054    1.4246   -0.0669 C   0  0  0  0  0  0  0  0  0  0  0  0
    5.6072   -0.5758   -1.1589 C   0  0  0  0  0  0  0  0  0  0  0  0
   -3.4777   -0.6743   -0.3960 C   0  0  0  0  0  0  0  0  0  0  0  0
    5.6155    0.8125   -1.0233 C   0  0  0  0  0  0  0  0  0  0  0  0
   -4.4117    0.3860   -0.1493 C   0  0  0  0  0  0  0  0  0  0  0  0
    0.7276   -1.3624    0.7483 C   0  0  0  0  0  0  0  0  0  0  0  0
   -1.5533   -1.7194   -0.2765 C   0  0  0  0  0  0  0  0  0  0  0  0
   -3.8036   -1.7936   -1.1328 C   0  0  0  0  0  0  0  0  0  0  0  0
   -5.7731    0.1134   -0.0735 C   0  0  0  0  0  0  0  0  0  0  0  0
   -3.9593    1.6906    0.0148 C   0  0  0  0  0  0  0  0  0  0  0  0
   -6.6341    1.1722    0.1665 C   0  0  0  0  0  0  0  0  0  0  0  0
   -4.9015    2.6788    0.2509 C   0  0  0  0  0  0  0  0  0  0  0  0
    5.6712    3.5122   -0.8074 C   0  0  0  0  0  0  0  0  0  0  0  0
    3.6593   -2.4393    1.8652 H   0  0  0  0  0  0  0  0  0  0  0  0
    2.7830   -1.0043    2.3792 H   0  0  0  0  0  0  0  0  0  0  0  0
    3.3576    1.1339    1.4958 H   0  0  0  0  0  0  0  0  0  0  0  0
    4.7915   -2.4328   -0.4529 H   0  0  0  0  0  0  0  0  0  0  0  0
    2.0126   -2.9471    0.3121 H   0  0  0  0  0  0  0  0  0  0  0  0
    6.2374   -1.0535   -1.9035 H   0  0  0  0  0  0  0  0  0  0  0  0
    6.2743    1.3544   -1.6931 H   0  0  0  0  0  0  0  0  0  0  0  0
    0.0685   -2.9748   -0.3820 H   0  0  0  0  0  0  0  0  0  0  0  0
   -4.7282   -2.0569   -1.6277 H   0  0  0  0  0  0  0  0  0  0  0  0
   -6.1842   -0.8852   -0.1767 H   0  0  0  0  0  0  0  0  0  0  0  0
   -2.9073    1.9512   -0.0405 H   0  0  0  0  0  0  0  0  0  0  0  0
   -7.7049    1.0122    0.2388 H   0  0  0  0  0  0  0  0  0  0  0  0
   -4.6005    3.7127    0.3850 H   0  0  0  0  0  0  0  0  0  0  0  0
    6.7243    3.2639   -0.6370 H   0  0  0  0  0  0  0  0  0  0  0  0
    5.3799    3.3888   -1.8560 H   0  0  0  0  0  0  0  0  0  0  0  0
    5.5496    4.5729   -0.5646 H   0  0  0  0  0  0  0  0  0  0  0  0
  1 18  1  0  0  0  0
  1 19  1  0  0  0  0
  2 12  1  0  0  0  0
  2 24  1  0  0  0  0
  3 17  2  0  0  0  0
  4  9  1  0  0  0  0
  4 17  1  0  0  0  0
  4 29  1  0  0  0  0
  5 17  1  0  0  0  0
  5 18  1  0  0  0  0
  5 32  1  0  0  0  0
  6 14  1  0  0  0  0
  6 18  2  0  0  0  0
  7 22  2  0  0  0  0
  7 23  1  0  0  0  0
  8  9  1  0  0  0  0
  8 10  2  0  0  0  0
  8 11  1  0  0  0  0
  9 25  1  0  0  0  0
  9 26  1  0  0  0  0
 10 12  1  0  0  0  0
 10 27  1  0  0  0  0
 11 13  2  0  0  0  0
 11 28  1  0  0  0  0
 12 15  2  0  0  0  0
 13 15  1  0  0  0  0
 13 30  1  0  0  0  0
 14 16  1  0  0  0  0
 14 19  2  0  0  0  0
 15 31  1  0  0  0  0
 16 20  2  0  0  0  0
 16 21  1  0  0  0  0
 19 33  1  0  0  0  0
 20 22  1  0  0  0  0
 20 34  1  0  0  0  0
 21 23  2  0  0  0  0
 21 35  1  0  0  0  0
 22 36  1  0  0  0  0
 23 37  1  0  0  0  0
 24 38  1  0  0  0  0
 24 39  1  0  0  0  0
 24 40  1  0  0  0  0
M  END
> <PUBCHEM_COMPOUND_CID>
53492330

> <PUBCHEM_CONFORMER_RMSD>
0.8

> <PUBCHEM_CONFORMER_DIVERSEORDER>
1
159
62
61
123
245
139
93
48
173
19
120
221
179
194
200
265
99
230
253
252
10
33
148
158
75
244
98
91
138
257
25
227
32
183
166
149
26
55
63
37
235
85
161
180
28
46
89
197
109
76
170
222
77
84
81
106
193
132
220
175
17
182
165
225
240
229
141
263
202
66
134
212
232
184
151
177
224
78
5
162
201
60
86
44
23
255
125
87
147
258
243
95
191
3
18
214
209
261
16
111
178
118
254
241
171
137
155
187
251
156
100
267
68
103
131
163
144
216
53
107
80
262
129
83
11
38
210
90
145
70
206
198
24
4
136
215
169
213
116
231
190
168
189
72
39
113
65
211
20
114
102
49
242
217
219
226
101
2
192
196
204
174
43
260
140
203
96
234
121
186
9
154
94
105
133
237
8
22
176
29
122
108
51
239
188
250
79
167
73
266
127
207
164
218
117
110
150
41
31
92
256
27
119
42
54
143
56
142
82
153
249
57
36
130
152
74
160
104
228
248
264
59
88
34
124
97
233
172
205
21
50
115
135
67
247
35
12
45
52
238
30
126
128
157
64
6
223
71
259
14
208
47
7
58
13
146
15
69
195
40
181
185
236
112
199
246

> <PUBCHEM_MMFF94_PARTIAL_CHARGES>
35
1 -0.08
10 -0.15
11 -0.15
12 0.08
13 -0.15
14 0.17
15 -0.15
16 0.05
17 0.69
18 0.44
19 -0.11
2 -0.36
20 -0.15
21 -0.15
22 0.16
23 0.16
24 0.28
27 0.15
28 0.15
29 0.37
3 -0.57
30 0.15
31 0.15
32 0.37
33 0.15
34 0.15
35 0.15
36 0.15
37 0.15
4 -0.73
5 -0.49
6 -0.57
7 -0.62
8 -0.14
9 0.44

> <PUBCHEM_EFFECTIVE_ROTOR_COUNT>
7

> <PUBCHEM_PHARMACOPHORE_FEATURES>
8
1 2 acceptor
1 3 acceptor
1 4 donor
1 5 donor
1 7 acceptor
5 1 6 14 18 19 rings
6 7 16 20 21 22 23 rings
6 8 10 11 12 13 15 rings

> <PUBCHEM_HEAVY_ATOM_COUNT>
24

> <PUBCHEM_ATOM_DEF_STEREO_COUNT>
0

> <PUBCHEM_ATOM_UDEF_STEREO_COUNT>
0

> <PUBCHEM_BOND_DEF_STEREO_COUNT>
0

> <PUBCHEM_BOND_UDEF_STEREO_COUNT>
0

> <PUBCHEM_ISOTOPIC_ATOM_COUNT>
0

> <PUBCHEM_COMPONENT_COUNT>
1

> <PUBCHEM_CACTVS_TAUTO_COUNT>
5

> <PUBCHEM_CONFORMER_ID>
03303A6A00000001

> <PUBCHEM_MMFF94_ENERGY>
62.0792

> <PUBCHEM_FEATURE_SELFOVERLAP>
40.648

> <PUBCHEM_SHAPE_FINGERPRINT>
10378564 45 17988646272903245366
10638233 991 18408318882887736487
10670039 82 17845659122894697096
11070050 100 16443342057723000024
11991303 11 17418086646671862735
12390115 104 17917150503779958963
12596602 18 17676488303253927587
12616971 3 18115292415509700906
13690498 29 17629757031395924343
13885169 86 18409454682757863793
13914758 101 11959739257318103403
13955234 65 17458894934732135698
14251751 18 7925909275032246807
14251757 5 18202845469846021051
14251764 75 18115030835143258516
14429114 114 18338230599996256928
14528608 73 18408882945106007018
1454969 45 18413100646905547447
14790565 3 18338517443744585633
14840074 17 18040720242689659093
14848178 5 10303812072927721634
15001296 14 18334292101874017816
15142526 21 18040997349399884259
15183329 4 17489594432780871826
15188451 53 9295289417569986038
15210252 30 18187646959835078860
15510800 12 12391514221828104788
15575132 122 18261951826590539957
1768 23 17987253144252380881
17857418 61 9655569721295671867
17899979 129 18337118938664707756
17959699 21 18411699911345257322
20691028 202 18340483370820483417
21120745 212 18123463050083722359
21315764 119 17988650653564341342
21774942 28 18341893035369900880
22061861 79 15195561303730988367
23559900 14 17275094063935664386
245318 6 17823432641363143548
268830 7 18113883971121209922
3004659 81 18201436957302867706
3472631 163 18412826880219006471
38570 142 18260839167635191578
393628 179 17621871416181425616
393628 194 17827080920462094988
5104073 3 17603577573823536562
59682541 52 15625938673710034855
633830 44 18335132116342144210
6898599 12 18270956964007667639
7808743 9 18341607118885043395
7970288 3 10087655788105529804

> <PUBCHEM_SHAPE_MULTIPOLES>
466.1
18.63
3.56
1.13
1.63
1.86
-0.02
14.2
2.89
-0.35
0.61
-0.94
-0.44
-2.32

> <PUBCHEM_SHAPE_SELFOVERLAP>
991.06

> <PUBCHEM_SHAPE_VOLUME>
261.6

> <PUBCHEM_COORDINATE_TYPE>
2
5
10

$$$$
87406786
  -OEChem-05102415093D

 40 42  0     0  0  0  0  0  0999 V2000
   -1.9950   -2.9039   -0.6920 S   0  0  0  0  0  0  0  0  0  0  0  0
    5.1065   -1.3636   -0.1775 O   0  0  0  0  0  0  0  0  0  0  0  0
    0.5113    0.5277    1.2743 O   0  0  0  0  0  0  0  0  0  0  0  0
    2.1730   -1.0712    1.1046 N   0  0  0  0  0  0  0  0  0  0  0  0
    0.0621   -1.5839    0.3524 N   0  0  0  0  0  0  0  0  0  0  0  0
   -2.1189   -0.4796    0.1970 N   0  0  0  0  0  0  0  0  0  0  0  0
   -6.6107    1.8986   -0.0852 N   0  0  0  0  0  0  0  0  0  0  0  0
    3.9365    0.5512    0.6661 C   0  0  0  0  0  0  0  0  0  0  0  0
    3.2284   -0.2809    1.6839 C   0  0  0  0  0  0  0  0  0  0  0  0
    4.8448   -0.0270   -0.2205 C   0  0  0  0  0  0  0  0  0  0  0  0
    3.6812    1.9212    0.6082 C   0  0  0  0  0  0  0  0  0  0  0  0
    5.4979    0.7648   -1.1650 C   0  0  0  0  0  0  0  0  0  0  0  0
    4.3343    2.7131   -0.3363 C   0  0  0  0  0  0  0  0  0  0  0  0
   -3.3757   -0.8205   -0.2638 C   0  0  0  0  0  0  0  0  0  0  0  0
    0.8639   -0.6003    0.9383 C   0  0  0  0  0  0  0  0  0  0  0  0
    5.2426    2.1349   -1.2230 C   0  0  0  0  0  0  0  0  0  0  0  0
   -4.4728    0.1016   -0.2032 C   0  0  0  0  0  0  0  0  0  0  0  0
   -1.3106   -1.5013    0.0216 C   0  0  0  0  0  0  0  0  0  0  0  0
   -3.5034   -2.0926   -0.7811 C   0  0  0  0  0  0  0  0  0  0  0  0
   -4.2396    1.4701   -0.2839 C   0  0  0  0  0  0  0  0  0  0  0  0
   -5.7736   -0.3694   -0.0634 C   0  0  0  0  0  0  0  0  0  0  0  0
    6.0486   -1.8698   -1.1210 C   0  0  0  0  0  0  0  0  0  0  0  0
   -5.3329    2.3190   -0.2205 C   0  0  0  0  0  0  0  0  0  0  0  0
   -6.7981    0.5618   -0.0100 C   0  0  0  0  0  0  0  0  0  0  0  0
    3.9299   -0.9670    2.1722 H   0  0  0  0  0  0  0  0  0  0  0  0
    2.8059    0.3463    2.4780 H   0  0  0  0  0  0  0  0  0  0  0  0
    2.9754    2.3868    1.2910 H   0  0  0  0  0  0  0  0  0  0  0  0
    2.3963   -2.0078    0.7821 H   0  0  0  0  0  0  0  0  0  0  0  0
    6.2152    0.3867   -1.8851 H   0  0  0  0  0  0  0  0  0  0  0  0
    4.1352    3.7798   -0.3817 H   0  0  0  0  0  0  0  0  0  0  0  0
    5.7505    2.7526   -1.9581 H   0  0  0  0  0  0  0  0  0  0  0  0
    0.4941   -2.4758    0.1274 H   0  0  0  0  0  0  0  0  0  0  0  0
   -4.3642   -2.5872   -1.2092 H   0  0  0  0  0  0  0  0  0  0  0  0
   -3.2425    1.8831   -0.3977 H   0  0  0  0  0  0  0  0  0  0  0  0
   -6.0163   -1.4234    0.0212 H   0  0  0  0  0  0  0  0  0  0  0  0
    5.6963   -1.7449   -2.1505 H   0  0  0  0  0  0  0  0  0  0  0  0
    7.0454   -1.4430   -0.9654 H   0  0  0  0  0  0  0  0  0  0  0  0
    6.1340   -2.9470   -0.9438 H   0  0  0  0  0  0  0  0  0  0  0  0
   -5.2050    3.3948   -0.2800 H   0  0  0  0  0  0  0  0  0  0  0  0
   -7.8303    0.2464    0.1025 H   0  0  0  0  0  0  0  0  0  0  0  0
  1 18  1  0  0  0  0
  1 19  1  0  0  0  0
  2 10  1  0  0  0  0
  2 22  1  0  0  0  0
  3 15  2  0  0  0  0
  4  9  1  0  0  0  0
  4 15  1  0  0  0  0
  4 28  1  0  0  0  0
  5 15  1  0  0  0  0
  5 18  1  0  0  0  0
  5 32  1  0  0  0  0
  6 14  1  0  0  0  0
  6 18  2  0  0  0  0
  7 23  2  0  0  0  0
  7 24  1  0  0  0  0
  8  9  1  0  0  0  0
  8 10  1  0  0  0  0
  8 11  2  0  0  0  0
  9 25  1  0  0  0  0
  9 26  1  0  0  0  0
 10 12  2  0  0  0  0
 11 13  1  0  0  0  0
 11 27  1  0  0  0  0
 12 16  1  0  0  0  0
 12 29  1  0  0  0  0
 13 16  2  0  0  0  0
 13 30  1  0  0  0  0
 14 17  1  0  0  0  0
 14 19  2  0  0  0  0
 16 31  1  0  0  0  0
 17 20  2  0  0  0  0
 17 21  1  0  0  0  0
 19 33  1  0  0  0  0
 20 23  1  0  0  0  0
 20 34  1  0  0  0  0
 21 24  2  0  0  0  0
 21 35  1  0  0  0  0
 22 36  1  0  0  0  0
 22 37  1  0  0  0  0
 22 38  1  0  0  0  0
 23 39  1  0  0  0  0
 24 40  1  0  0  0  0
M  END
> <PUBCHEM_COMPOUND_CID>
87406786

> <PUBCHEM_CONFORMER_RMSD>
0.8

> <PUBCHEM_CONFORMER_DIVERSEORDER>
1
185
124
236
131
37
66
155
88
148
14
54
172
175
232
227
121
143
142
186
225
123
116
39
107
192
198
196
50
205
35
191
19
113
114
105
158
102
190
220
90
38
226
221
77
229
137
96
103
4
69
80
161
202
87
165
55
46
178
60
189
222
157
219
26
17
94
97
83
128
183
242
239
174
233
28
179
197
10
78
15
247
51
29
89
162
59
132
213
211
223
5
147
154
156
212
127
210
40
208
23
49
163
12
101
65
135
13
195
58
246
71
235
136
187
150
33
44
133
245
152
194
215
125
243
45
43
160
100
16
206
241
139
99
111
214
126
119
42
85
130
146
177
134
244
193
3
201
181
182
108
104
209
98
199
240
72
64
234
9
138
36
117
188
167
86
112
32
204
11
207
231
74
41
237
6
118
166
48
176
8
62
159
47
228
20
145
53
224
200
110
56
27
76
106
92
153
70
173
68
57
22
203
168
67
25
24
141
84
164
151
61
171
2
91
218
109
63
31
81
115
180
216
82
238
149
7
120
144
217
170
122
18
73
30
21
230
140
93
169
184
129
95
52
79
75
34

> <PUBCHEM_MMFF94_PARTIAL_CHARGES>
35
1 -0.08
10 0.08
11 -0.15
12 -0.15
13 -0.15
14 0.17
15 0.69
16 -0.15
17 0.05
18 0.44
19 -0.11
2 -0.36
20 -0.15
21 -0.15
22 0.28
23 0.16
24 0.16
27 0.15
28 0.37
29 0.15
3 -0.57
30 0.15
31 0.15
32 0.37
33 0.15
34 0.15
35 0.15
39 0.15
4 -0.73
40 0.15
5 -0.49
6 -0.57
7 -0.62
8 -0.14
9 0.44

> <PUBCHEM_EFFECTIVE_ROTOR_COUNT>
7

> <PUBCHEM_PHARMACOPHORE_FEATURES>
8
1 2 acceptor
1 3 acceptor
1 4 donor
1 5 donor
1 7 acceptor
5 1 6 14 18 19 rings
6 7 17 20 21 23 24 rings
6 8 10 11 12 13 16 rings

> <PUBCHEM_HEAVY_ATOM_COUNT>
24

> <PUBCHEM_ATOM_DEF_STEREO_COUNT>
0

> <PUBCHEM_ATOM_UDEF_STEREO_COUNT>
0

> <PUBCHEM_BOND_DEF_STEREO_COUNT>
0

> <PUBCHEM_BOND_UDEF_STEREO_COUNT>
0

> <PUBCHEM_ISOTOPIC_ATOM_COUNT>
0

> <PUBCHEM_COMPONENT_COUNT>
1

> <PUBCHEM_CACTVS_TAUTO_COUNT>
5

> <PUBCHEM_CONFORMER_ID>
0535B8C200000001

> <PUBCHEM_MMFF94_ENERGY>
63.1921

> <PUBCHEM_FEATURE_SELFOVERLAP>
40.648

> <PUBCHEM_SHAPE_FINGERPRINT>
10 15 12179851610483196522
10378564 45 18272936025082005932
10670039 82 18200596891052625337
11991303 11 17703221919092692639
12390115 104 18202285793359273347
12596602 18 17312817170161287697
12616971 3 17895457194528457642
13782708 43 15840695448452107575
14251757 5 18271526493771461953
14347332 77 10735882776955969171
14528608 73 18334292101899703016
1454969 45 18409722985850352671
14790565 3 18409448064271224345
14840074 17 17821729442407325765
14848178 5 11672064155147890069
14933364 13 18335143094103745443
15001296 14 18114460175148950117
15183329 4 17561091297247354456
15188451 53 10231764365909770820
15210252 30 17895758534215027380
15575132 122 18114174199689832005
17349148 13 12103573033986708792
17844677 252 18335988669869250786
17857418 61 10375872991460247201
17959699 21 18336265734183171016
18222031 100 13110973054187929058
19315092 285 12534802452985668934
19377110 9 11602823536012863770
19611394 137 18042419079134766107
20567600 70 9006758900713889015
21315764 119 18272376351988392646
21728266 224 9583527524879043363
22061861 79 15985386706962570061
23559900 14 18130784551830966634
249057 3 18413109429649937734
3004659 81 18342737395558876018
32948 21 18273213114675697890
3298306 158 17704352182069200422
3472631 163 18409167739934006959
38570 142 18041285404313730802
393628 194 17391079501525961908
394071 54 16226334827998772388
4058900 60 18339930286633476515
4098825 35 18408887356701980668
5104073 3 17240754146899485162
59682541 52 16343704292465313725
633830 44 18187919629738267386
6443934 186 8358252636347831870
7808743 9 18410567414516269595
8988823 20 9583515413256021466

> <PUBCHEM_SHAPE_MULTIPOLES>
466.1
18.78
2.93
1.15
6.04
0.11
-0.15
8.17
4.78
0.06
0.82
-1.55
-0.07
-0.45

> <PUBCHEM_SHAPE_SELFOVERLAP>
992.156

> <PUBCHEM_SHAPE_VOLUME>
261.5

> <PUBCHEM_COORDINATE_TYPE>
2
5
10

$$$$
87405190
  -OEChem-05102415093D

 40 42  0     0  0  0  0  0  0999 V2000
   -2.4697   -2.6332   -1.5234 S   0  0  0  0  0  0  0  0  0  0  0  0
    6.3650    1.8622   -1.2480 O   0  0  0  0  0  0  0  0  0  0  0  0
    0.4076   -0.3592    1.3876 O   0  0  0  0  0  0  0  0  0  0  0  0
    1.8257   -2.0719    0.7535 N   0  0  0  0  0  0  0  0  0  0  0  0
   -0.2970   -2.0106   -0.1248 N   0  0  0  0  0  0  0  0  0  0  0  0
   -2.2847   -0.5895    0.0487 N   0  0  0  0  0  0  0  0  0  0  0  0
   -6.3651    2.4239    0.4733 N   0  0  0  0  0  0  0  0  0  0  0  0
    3.8569   -0.7282    0.8082 C   0  0  0  0  0  0  0  0  0  0  0  0
    2.9554   -1.6583    1.5468 C   0  0  0  0  0  0  0  0  0  0  0  0
    3.8459    0.6349    1.1042 C   0  0  0  0  0  0  0  0  0  0  0  0
    4.7109   -1.2207   -0.1787 C   0  0  0  0  0  0  0  0  0  0  0  0
    5.5429    1.0128   -0.5733 C   0  0  0  0  0  0  0  0  0  0  0  0
    4.6890    1.5053    0.4135 C   0  0  0  0  0  0  0  0  0  0  0  0
    5.5539   -0.3503   -0.8695 C   0  0  0  0  0  0  0  0  0  0  0  0
   -3.5533   -0.5831   -0.4975 C   0  0  0  0  0  0  0  0  0  0  0  0
   -4.5069    0.4367   -0.1682 C   0  0  0  0  0  0  0  0  0  0  0  0
    0.6091   -1.3781    0.7311 C   0  0  0  0  0  0  0  0  0  0  0  0
   -1.6252   -1.6252   -0.4209 C   0  0  0  0  0  0  0  0  0  0  0  0
   -3.8384   -1.6109   -1.3717 C   0  0  0  0  0  0  0  0  0  0  0  0
   -5.8675    0.1502   -0.1803 C   0  0  0  0  0  0  0  0  0  0  0  0
   -4.0743    1.7156    0.1644 C   0  0  0  0  0  0  0  0  0  0  0  0
   -6.7478    1.1695    0.1451 C   0  0  0  0  0  0  0  0  0  0  0  0
   -5.0348    2.6650    0.4745 C   0  0  0  0  0  0  0  0  0  0  0  0
    6.3025    3.2432   -0.8947 C   0  0  0  0  0  0  0  0  0  0  0  0
    3.5039   -2.5625    1.8351 H   0  0  0  0  0  0  0  0  0  0  0  0
    2.5936   -1.2012    2.4754 H   0  0  0  0  0  0  0  0  0  0  0  0
    3.1843    1.0320    1.8696 H   0  0  0  0  0  0  0  0  0  0  0  0
    4.7282   -2.2807   -0.4183 H   0  0  0  0  0  0  0  0  0  0  0  0
    1.9260   -2.8949    0.1673 H   0  0  0  0  0  0  0  0  0  0  0  0
    4.6291    2.5516    0.6933 H   0  0  0  0  0  0  0  0  0  0  0  0
    6.2168   -0.7397   -1.6373 H   0  0  0  0  0  0  0  0  0  0  0  0
    0.0117   -2.8517   -0.6045 H   0  0  0  0  0  0  0  0  0  0  0  0
   -4.7398   -1.8197   -1.9313 H   0  0  0  0  0  0  0  0  0  0  0  0
   -6.2643   -0.8318   -0.4153 H   0  0  0  0  0  0  0  0  0  0  0  0
   -3.0235    1.9862    0.1829 H   0  0  0  0  0  0  0  0  0  0  0  0
   -7.8190    0.9968    0.1544 H   0  0  0  0  0  0  0  0  0  0  0  0
   -4.7496    3.6777    0.7396 H   0  0  0  0  0  0  0  0  0  0  0  0
    5.3157    3.6686   -1.1071 H   0  0  0  0  0  0  0  0  0  0  0  0
    6.6108    3.4075    0.1433 H   0  0  0  0  0  0  0  0  0  0  0  0
    7.0216    3.7719   -1.5291 H   0  0  0  0  0  0  0  0  0  0  0  0
  1 18  1  0  0  0  0
  1 19  1  0  0  0  0
  2 12  1  0  0  0  0
  2 24  1  0  0  0  0
  3 17  2  0  0  0  0
  4  9  1  0  0  0  0
  4 17  1  0  0  0  0
  4 29  1  0  0  0  0
  5 17  1  0  0  0  0
  5 18  1  0  0  0  0
  5 32  1  0  0  0  0
  6 15  1  0  0  0  0
  6 18  2  0  0  0  0
  7 22  2  0  0  0  0
  7 23  1  0  0  0  0
  8  9  1  0  0  0  0
  8 10  2  0  0  0  0
  8 11  1  0  0  0  0
  9 25  1  0  0  0  0
  9 26  1  0  0  0  0
 10 13  1  0  0  0  0
 10 27  1  0  0  0  0
 11 14  2  0  0  0  0
 11 28  1  0  0  0  0
 12 13  2  0  0  0  0
 12 14  1  0  0  0  0
 13 30  1  0  0  0  0
 14 31  1  0  0  0  0
 15 16  1  0  0  0  0
 15 19  2  0  0  0  0
 16 20  2  0  0  0  0
 16 21  1  0  0  0  0
 19 33  1  0  0  0  0
 20 22  1  0  0  0  0
 20 34  1  0  0  0  0
 21 23  2  0  0  0  0
 21 35  1  0  0  0  0
 22 36  1  0  0  0  0
 23 37  1  0  0  0  0
 24 38  1  0  0  0  0
 24 39  1  0  0  0  0
 24 40  1  0  0  0  0
M  END
> <PUBCHEM_COMPOUND_CID>
87405190

> <PUBCHEM_CONFORMER_RMSD>
0.8

> <PUBCHEM_CONFORMER_DIVERSEORDER>
1
60
21
93
24
30
73
28
53
47
55
48
84
90
18
26
69
43
41
25
5
12
9
6
63
86
59
16
51
34
91
45
83
46
35
7
40
58
22
19
27
36
76
87
68
39
44
72
74
38
88
81
14
8
52
70
11
66
10
50
79
80
2
89
75
49
33
92
15
37
67
23
77
3
57
65
62
56
85
61
78
64
31
4
82
20
32
54
42
29
17
71
13

> <PUBCHEM_MMFF94_PARTIAL_CHARGES>
35
1 -0.08
10 -0.15
11 -0.15
12 0.08
13 -0.15
14 -0.15
15 0.17
16 0.05
17 0.69
18 0.44
19 -0.11
2 -0.36
20 -0.15
21 -0.15
22 0.16
23 0.16
24 0.28
27 0.15
28 0.15
29 0.37
3 -0.57
30 0.15
31 0.15
32 0.37
33 0.15
34 0.15
35 0.15
36 0.15
37 0.15
4 -0.73
5 -0.49
6 -0.57
7 -0.62
8 -0.14
9 0.44

> <PUBCHEM_EFFECTIVE_ROTOR_COUNT>
7

> <PUBCHEM_PHARMACOPHORE_FEATURES>
8
1 2 acceptor
1 3 acceptor
1 4 donor
1 5 donor
1 7 acceptor
5 1 6 15 18 19 rings
6 7 16 20 21 22 23 rings
6 8 10 11 12 13 14 rings

> <PUBCHEM_HEAVY_ATOM_COUNT>
24

> <PUBCHEM_ATOM_DEF_STEREO_COUNT>
0

> <PUBCHEM_ATOM_UDEF_STEREO_COUNT>
0

> <PUBCHEM_BOND_DEF_STEREO_COUNT>
0

> <PUBCHEM_BOND_UDEF_STEREO_COUNT>
0

> <PUBCHEM_ISOTOPIC_ATOM_COUNT>
0

> <PUBCHEM_COMPONENT_COUNT>
1

> <PUBCHEM_CACTVS_TAUTO_COUNT>
5

> <PUBCHEM_CONFORMER_ID>
0535B28600000001

> <PUBCHEM_MMFF94_ENERGY>
62.1092

> <PUBCHEM_FEATURE_SELFOVERLAP>
40.648

> <PUBCHEM_SHAPE_FINGERPRINT>
10 15 13840272502547408478
10378564 45 17918275329707594022
10554248 39 18124856998646034711
10670039 82 17631737049715090497
11273773 42 18334577996476908940
11991303 11 16988552542271467887
1200032 147 17676493878459145896
12390115 104 17775003454418541755
12596602 18 17822008667184799947
12616971 3 18115008728619590554
13690498 29 17630319976991055415
13885169 86 18260555544953241373
13914758 101 11815904448949504651
13955234 65 17168694233885809218
14251751 18 10809345546257829655
14251757 5 18060135453372444899
14251764 75 18260830431956236274
1454969 45 18342448228727858791
14790565 3 18339922619589104673
14840074 17 18187083936349918013
14848178 5 10592039159218841622
15183329 4 17131838654986520514
15188451 53 8646774378295313254
15210252 30 18260829354294601912
15575132 122 18336260125236100461
15685185 35 17824274915153223356
15840311 113 18260834756803752445
16991971 28 17628052806492056455
17857418 61 9295281759717039875
19438510 23 17895756322316796128
21298829 104 18262241135724924044
21315764 119 17989213616481688438
21585482 111 18041559131128028028
21774942 28 18341612664252591196
22061861 79 14908176464842537307
23559900 14 16988271075478457402
249057 25 18192123023693865866
255183 451 16980937505490952591
268830 7 18040983030147801874
3004659 81 18201717307014276282
3472631 163 18412827979825540806
3610482 184 18411422851088473303
38570 142 18334021566452900962
393628 194 17826519057225011940
445580 204 18337110172478648892
5104073 3 17385718136683272154
543368 44 18261671566682800799
54583773 228 18409722973239868221
5718773 13 10951783954065175044
5911458 16 18408610257469269564
59682541 52 15195000492987642517
633830 44 18334006194949987178
6898599 12 18271519909507859615
7808743 9 18343012277639363907

> <PUBCHEM_SHAPE_MULTIPOLES>
466.1
19.59
3.25
1.27
2.06
1.24
-0.02
16.39
-3.6
-0.29
-0.64
1.05
-0.37
-3.28

> <PUBCHEM_SHAPE_SELFOVERLAP>
991.064

> <PUBCHEM_SHAPE_VOLUME>
261.9

> <PUBCHEM_COORDINATE_TYPE>
2
5
10

$$$$
87405291
  -OEChem-05102415093D

 38 40  0     0  0  0  0  0  0999 V2000
   -2.0474   -2.8988   -1.0285 S   0  0  0  0  0  0  0  0  0  0  0  0
    0.8259    0.0155    1.2464 O   0  0  0  0  0  0  0  0  0  0  0  0
    2.3090   -1.7163    0.8624 N   0  0  0  0  0  0  0  0  0  0  0  0
    0.1482   -1.9220    0.1074 N   0  0  0  0  0  0  0  0  0  0  0  0
   -1.9074   -0.5899    0.1255 N   0  0  0  0  0  0  0  0  0  0  0  0
    4.8691    3.2731   -0.2554 N   0  0  0  0  0  0  0  0  0  0  0  0
   -6.1295    2.2524    0.2117 N   0  0  0  0  0  0  0  0  0  0  0  0
    4.2605   -0.2913    0.5537 C   0  0  0  0  0  0  0  0  0  0  0  0
    3.4483   -1.1080    1.5011 C   0  0  0  0  0  0  0  0  0  0  0  0
    4.1853    1.1011    0.5921 C   0  0  0  0  0  0  0  0  0  0  0  0
    5.0948   -0.9194   -0.3710 C   0  0  0  0  0  0  0  0  0  0  0  0
    4.9445    1.8654   -0.2941 C   0  0  0  0  0  0  0  0  0  0  0  0
   -3.1981   -0.7464   -0.3410 C   0  0  0  0  0  0  0  0  0  0  0  0
    5.8538   -0.1553   -1.2575 C   0  0  0  0  0  0  0  0  0  0  0  0
   -4.1922    0.2706   -0.1535 C   0  0  0  0  0  0  0  0  0  0  0  0
    5.7788    1.2371   -1.2188 C   0  0  0  0  0  0  0  0  0  0  0  0
    1.0549   -1.0978    0.7796 C   0  0  0  0  0  0  0  0  0  0  0  0
   -1.2122   -1.6627   -0.1804 C   0  0  0  0  0  0  0  0  0  0  0  0
   -3.4638   -1.9324   -0.9925 C   0  0  0  0  0  0  0  0  0  0  0  0
   -5.5334   -0.0774   -0.0366 C   0  0  0  0  0  0  0  0  0  0  0  0
   -3.8185    1.6083   -0.0879 C   0  0  0  0  0  0  0  0  0  0  0  0
   -6.4545    0.9419    0.1431 C   0  0  0  0  0  0  0  0  0  0  0  0
   -4.8165    2.5523    0.0941 C   0  0  0  0  0  0  0  0  0  0  0  0
    3.1041   -0.5027    2.3480 H   0  0  0  0  0  0  0  0  0  0  0  0
    4.0604   -1.9149    1.9205 H   0  0  0  0  0  0  0  0  0  0  0  0
    3.5343    1.5929    1.3114 H   0  0  0  0  0  0  0  0  0  0  0  0
    5.1617   -2.0035   -0.4106 H   0  0  0  0  0  0  0  0  0  0  0  0
    2.4291   -2.6290    0.4340 H   0  0  0  0  0  0  0  0  0  0  0  0
    6.5033   -0.6445   -1.9776 H   0  0  0  0  0  0  0  0  0  0  0  0
    6.3754    1.8214   -1.9147 H   0  0  0  0  0  0  0  0  0  0  0  0
    0.4821   -2.8225   -0.2248 H   0  0  0  0  0  0  0  0  0  0  0  0
   -4.3764   -2.2851   -1.4527 H   0  0  0  0  0  0  0  0  0  0  0  0
   -5.8838   -1.1038   -0.0633 H   0  0  0  0  0  0  0  0  0  0  0  0
   -2.7851    1.9273   -0.1784 H   0  0  0  0  0  0  0  0  0  0  0  0
    5.4190    3.8274   -0.8982 H   0  0  0  0  0  0  0  0  0  0  0  0
    4.2640    3.7295    0.4142 H   0  0  0  0  0  0  0  0  0  0  0  0
   -7.5125    0.7233    0.2439 H   0  0  0  0  0  0  0  0  0  0  0  0
   -4.5777    3.6092    0.1509 H   0  0  0  0  0  0  0  0  0  0  0  0
  1 18  1  0  0  0  0
  1 19  1  0  0  0  0
  2 17  2  0  0  0  0
  3  9  1  0  0  0  0
  3 17  1  0  0  0  0
  3 28  1  0  0  0  0
  4 17  1  0  0  0  0
  4 18  1  0  0  0  0
  4 31  1  0  0  0  0
  5 13  1  0  0  0  0
  5 18  2  0  0  0  0
  6 12  1  0  0  0  0
  6 35  1  0  0  0  0
  6 36  1  0  0  0  0
  7 22  2  0  0  0  0
  7 23  1  0  0  0  0
  8  9  1  0  0  0  0
  8 10  2  0  0  0  0
  8 11  1  0  0  0  0
  9 24  1  0  0  0  0
  9 25  1  0  0  0  0
 10 12  1  0  0  0  0
 10 26  1  0  0  0  0
 11 14  2  0  0  0  0
 11 27  1  0  0  0  0
 12 16  2  0  0  0  0
 13 15  1  0  0  0  0
 13 19  2  0  0  0  0
 14 16  1  0  0  0  0
 14 29  1  0  0  0  0
 15 20  2  0  0  0  0
 15 21  1  0  0  0  0
 16 30  1  0  0  0  0
 19 32  1  0  0  0  0
 20 22  1  0  0  0  0
 20 33  1  0  0  0  0
 21 23  2  0  0  0  0
 21 34  1  0  0  0  0
 22 37  1  0  0  0  0
 23 38  1  0  0  0  0
M  END
> <PUBCHEM_COMPOUND_CID>
87405291

> <PUBCHEM_CONFORMER_RMSD>
0.8

> <PUBCHEM_CONFORMER_DIVERSEORDER>
1
77
25
75
103
125
51
29
56
42
60
123
13
90
45
138
55
122
107
23
145
148
2
52
66
3
132
111
110
33
89
91
146
82
124
27
40
117
10
95
112
31
102
83
84
38
133
128
6
61
115
63
131
36
129
97
67
48
80
104
26
7
57
121
12
15
54
44
74
137
81
70
143
37
64
92
113
11
35
116
86
30
101
62
68
65
126
59
135
14
17
136
58
49
147
78
8
106
108
114
142
47
21
130
18
16
118
41
34
144
120
79
46
88
99
39
72
73
127
4
119
100
141
19
109
9
139
50
28
134
43
140
24
94
87
69
85
20
76
105
71
96
5
98
32
22
53
93

> <PUBCHEM_MMFF94_PARTIAL_CHARGES>
36
1 -0.08
10 -0.15
11 -0.15
12 0.1
13 0.17
14 -0.15
15 0.05
16 -0.15
17 0.69
18 0.44
19 -0.11
2 -0.57
20 -0.15
21 -0.15
22 0.16
23 0.16
26 0.15
27 0.15
28 0.37
29 0.15
3 -0.73
30 0.15
31 0.37
32 0.15
33 0.15
34 0.15
35 0.4
36 0.4
37 0.15
38 0.15
4 -0.49
5 -0.57
6 -0.9
7 -0.62
8 -0.14
9 0.44

> <PUBCHEM_EFFECTIVE_ROTOR_COUNT>
6

> <PUBCHEM_PHARMACOPHORE_FEATURES>
9
1 2 acceptor
1 3 donor
1 4 donor
1 6 cation
1 6 donor
1 7 acceptor
5 1 5 13 18 19 rings
6 7 15 20 21 22 23 rings
6 8 10 11 12 14 16 rings

> <PUBCHEM_HEAVY_ATOM_COUNT>
23

> <PUBCHEM_ATOM_DEF_STEREO_COUNT>
0

> <PUBCHEM_ATOM_UDEF_STEREO_COUNT>
0

> <PUBCHEM_BOND_DEF_STEREO_COUNT>
0

> <PUBCHEM_BOND_UDEF_STEREO_COUNT>
0

> <PUBCHEM_ISOTOPIC_ATOM_COUNT>
0

> <PUBCHEM_COMPONENT_COUNT>
1

> <PUBCHEM_CACTVS_TAUTO_COUNT>
5

> <PUBCHEM_CONFORMER_ID>
0535B2EB00000001

> <PUBCHEM_MMFF94_ENERGY>
60.5958

> <PUBCHEM_FEATURE_SELFOVERLAP>
45.723

> <PUBCHEM_SHAPE_FINGERPRINT>
10 15 13190347885197696574
10378564 45 18060142025168266782
10554248 39 18194099855685791319
10638233 991 18408037425017068005
10670039 82 17988368048673582760
10753850 27 10519978271389416639
11056379 131 18269833288936673191
11070050 100 16298099878876831952
11991303 11 17489582403068509479
12390115 104 18060140904266328635
12596602 18 17530964653562167569
12616971 3 18114165429102622522
13690498 29 17700971299915121279
13885169 86 18408328799957134721
13914758 101 12247408878154926883
13955234 65 17168412758845736618
14251751 18 8214141850054109879
14251757 5 18201720682209016571
14528608 73 18408321107659742226
1454969 45 18411694388655533807
14790565 3 18410292476121171689
14840074 17 17967817136978874269
14848178 5 10375870770835502612
15001296 14 18261671579405068688
15142526 21 17968094252426493170
15183329 4 17560808710100870000
15188451 53 9583521988613373470
15210252 30 18114464574039441052
15575132 122 18188486874759276733
17349148 13 11239720824456219210
17844677 252 18338240474209992274
17857418 61 9943803395808083163
17959699 21 18410856594564043538
18222031 100 11815902284074861226
21315764 119 18131360678780748478
22061861 79 15482669087084721294
23559900 14 17346592015297891754
245318 6 17750531734849674620
268830 7 17968642883201763042
2838139 119 18410005507896996989
3004659 81 18272932700935918850
3472631 163 18411982463868168662
38570 142 18187374207467064818
393628 194 17755022239839730124
4058900 60 18197786509942251771
5104073 3 17531519984122676514
59682541 52 15841270333612858509
633830 44 18334850650008083178
6438161 24 9294992550216535017
7062679 6 18410572873134775075
7808743 9 18412538821537465547

> <PUBCHEM_SHAPE_MULTIPOLES>
446.4
17.97
3.09
1.1
0.79
0.8
0.03
12.04
-3.05
-1.21
-0.53
1.27
-0.32
-1.66

> <PUBCHEM_SHAPE_SELFOVERLAP>
952.681

> <PUBCHEM_SHAPE_VOLUME>
249.2

> <PUBCHEM_COORDINATE_TYPE>
2
5
10

$$$$
87407566
  -OEChem-05102415093D

 40 43  0     0  0  0  0  0  0999 V2000
    2.5175    3.0823   -0.7766 S   0  0  0  0  0  0  0  0  0  0  0  0
   -0.5620    0.1309    1.1547 O   0  0  0  0  0  0  0  0  0  0  0  0
   -4.5684   -2.7084   -0.5307 N   0  0  0  0  0  0  0  0  0  0  0  0
   -1.9390    1.9737    0.9199 N   0  0  0  0  0  0  0  0  0  0  0  0
    0.2469    2.1278    0.2228 N   0  0  0  0  0  0  0  0  0  0  0  0
    2.2242    0.6840    0.1424 N   0  0  0  0  0  0  0  0  0  0  0  0
    6.2784   -2.3916    0.0160 N   0  0  0  0  0  0  0  0  0  0  0  0
   -3.9470   -0.7526    0.3442 C   0  0  0  0  0  0  0  0  0  0  0  0
   -3.9299    0.6528    0.4443 C   0  0  0  0  0  0  0  0  0  0  0  0
   -4.7278   -1.3462   -0.6497 C   0  0  0  0  0  0  0  0  0  0  0  0
   -3.1226    1.3734    1.4769 C   0  0  0  0  0  0  0  0  0  0  0  0
   -3.3146   -1.8054    1.0629 C   0  0  0  0  0  0  0  0  0  0  0  0
   -4.6929    1.4105   -0.4517 C   0  0  0  0  0  0  0  0  0  0  0  0
   -5.4957   -0.6017   -1.5521 C   0  0  0  0  0  0  0  0  0  0  0  0
   -3.7163   -2.9957    0.5018 C   0  0  0  0  0  0  0  0  0  0  0  0
   -5.4632    0.7907   -1.4338 C   0  0  0  0  0  0  0  0  0  0  0  0
   -0.7185    1.2956    0.7961 C   0  0  0  0  0  0  0  0  0  0  0  0
    3.5313    0.8105   -0.2858 C   0  0  0  0  0  0  0  0  0  0  0  0
    1.5966    1.8197   -0.0676 C   0  0  0  0  0  0  0  0  0  0  0  0
    4.4629   -0.2754   -0.1834 C   0  0  0  0  0  0  0  0  0  0  0  0
    3.8767    2.0371   -0.8133 C   0  0  0  0  0  0  0  0  0  0  0  0
    5.8186   -0.0183   -0.0116 C   0  0  0  0  0  0  0  0  0  0  0  0
    4.0139   -1.5895   -0.2557 C   0  0  0  0  0  0  0  0  0  0  0  0
    6.6774   -1.1015    0.0817 C   0  0  0  0  0  0  0  0  0  0  0  0
    4.9535   -2.6025   -0.1515 C   0  0  0  0  0  0  0  0  0  0  0  0
   -3.7185    2.1750    1.9286 H   0  0  0  0  0  0  0  0  0  0  0  0
   -2.8304    0.7022    2.2915 H   0  0  0  0  0  0  0  0  0  0  0  0
   -2.6396   -1.7122    1.9024 H   0  0  0  0  0  0  0  0  0  0  0  0
   -4.6933    2.4965   -0.3913 H   0  0  0  0  0  0  0  0  0  0  0  0
   -5.0163   -3.3963   -1.1203 H   0  0  0  0  0  0  0  0  0  0  0  0
   -6.0956   -1.0833   -2.3171 H   0  0  0  0  0  0  0  0  0  0  0  0
   -3.4723   -4.0200    0.7454 H   0  0  0  0  0  0  0  0  0  0  0  0
   -6.0483    1.3983   -2.1194 H   0  0  0  0  0  0  0  0  0  0  0  0
   -1.9988    2.9293    0.5818 H   0  0  0  0  0  0  0  0  0  0  0  0
   -0.0291    3.0740   -0.0246 H   0  0  0  0  0  0  0  0  0  0  0  0
    4.8173    2.3797   -1.2220 H   0  0  0  0  0  0  0  0  0  0  0  0
    6.2261    0.9839    0.0683 H   0  0  0  0  0  0  0  0  0  0  0  0
    2.9665   -1.8380   -0.3936 H   0  0  0  0  0  0  0  0  0  0  0  0
    7.7436   -0.9550    0.2202 H   0  0  0  0  0  0  0  0  0  0  0  0
    4.6550   -3.6444   -0.2027 H   0  0  0  0  0  0  0  0  0  0  0  0
  1 19  1  0  0  0  0
  1 21  1  0  0  0  0
  2 17  2  0  0  0  0
  3 10  1  0  0  0  0
  3 15  1  0  0  0  0
  3 30  1  0  0  0  0
  4 11  1  0  0  0  0
  4 17  1  0  0  0  0
  4 34  1  0  0  0  0
  5 17  1  0  0  0  0
  5 19  1  0  0  0  0
  5 35  1  0  0  0  0
  6 18  1  0  0  0  0
  6 19  2  0  0  0  0
  7 24  2  0  0  0  0
  7 25  1  0  0  0  0
  8  9  2  0  0  0  0
  8 10  1  0  0  0  0
  8 12  1  0  0  0  0
  9 11  1  0  0  0  0
  9 13  1  0  0  0  0
 10 14  2  0  0  0  0
 11 26  1  0  0  0  0
 11 27  1  0  0  0  0
 12 15  2  0  0  0  0
 12 28  1  0  0  0  0
 13 16  2  0  0  0  0
 13 29  1  0  0  0  0
 14 16  1  0  0  0  0
 14 31  1  0  0  0  0
 15 32  1  0  0  0  0
 16 33  1  0  0  0  0
 18 20  1  0  0  0  0
 18 21  2  0  0  0  0
 20 22  2  0  0  0  0
 20 23  1  0  0  0  0
 21 36  1  0  0  0  0
 22 24  1  0  0  0  0
 22 37  1  0  0  0  0
 23 25  2  0  0  0  0
 23 38  1  0  0  0  0
 24 39  1  0  0  0  0
 25 40  1  0  0  0  0
M  END
> <PUBCHEM_COMPOUND_CID>
87407566

> <PUBCHEM_CONFORMER_RMSD>
0.8

> <PUBCHEM_CONFORMER_DIVERSEORDER>
1
15
191
50
188
179
28
59
58
171
74
16
25
175
4
60
20
109
169
148
156
104
129
152
99
195
186
157
78
36
119
8
82
126
173
30
120
61
102
131
158
107
23
113
87
13
124
63
37
65
91
181
174
137
115
192
163
123
116
183
11
32
79
125
97
81
139
117
21
62
189
83
44
138
31
182
39
98
47
73
7
200
41
71
114
133
18
108
162
168
88
22
110
172
190
136
35
12
122
199
160
150
134
161
142
95
149
27
19
118
140
42
180
84
6
127
167
135
176
3
197
101
112
159
43
9
10
121
166
144
143
187
67
29
34
49
51
132
69
92
170
80
17
178
72
77
56
128
40
89
130
5
198
68
111
177
86
100
106
193
93
46
94
66
90
196
57
185
45
75
147
194
64
53
54
38
155
96
151
141
52
48
85
145
164
105
154
76
165
55
184
33
26
14
24
103
153
2
146
70

> <PUBCHEM_MMFF94_PARTIAL_CHARGES>
37
1 -0.08
10 -0.15
11 0.44
12 -0.15
13 -0.15
14 -0.15
15 -0.3
16 -0.15
17 0.69
18 0.17
19 0.44
2 -0.57
20 0.05
21 -0.11
22 -0.15
23 -0.15
24 0.16
25 0.16
28 0.15
29 0.15
3 0.03
30 0.27
31 0.15
32 0.15
33 0.15
34 0.37
35 0.37
36 0.15
37 0.15
38 0.15
39 0.15
4 -0.73
40 0.15
5 -0.49
6 -0.57
7 -0.62
9 -0.14

> <PUBCHEM_EFFECTIVE_ROTOR_COUNT>
6

> <PUBCHEM_PHARMACOPHORE_FEATURES>
10
1 2 acceptor
1 3 cation
1 3 donor
1 4 donor
1 5 donor
1 7 acceptor
5 1 6 18 19 21 rings
5 3 8 10 12 15 rings
6 7 20 22 23 24 25 rings
6 8 9 10 13 14 16 rings

> <PUBCHEM_HEAVY_ATOM_COUNT>
25

> <PUBCHEM_ATOM_DEF_STEREO_COUNT>
0

> <PUBCHEM_ATOM_UDEF_STEREO_COUNT>
0

> <PUBCHEM_BOND_DEF_STEREO_COUNT>
0

> <PUBCHEM_BOND_UDEF_STEREO_COUNT>
0

> <PUBCHEM_ISOTOPIC_ATOM_COUNT>
0

> <PUBCHEM_COMPONENT_COUNT>
1

> <PUBCHEM_CACTVS_TAUTO_COUNT>
5

> <PUBCHEM_CONFORMER_ID>
0535BBCE00000001

> <PUBCHEM_MMFF94_ENERGY>
48.7626

> <PUBCHEM_FEATURE_SELFOVERLAP>
50.889

> <PUBCHEM_SHAPE_FINGERPRINT>
10391435 84 18411410731387043954
105312 117 15285362829265782489
11211813 140 17971736801701539402
11315621 136 18334859475896364058
12107183 9 18267878185247115185
12596602 18 17275103895558513738
12616971 3 18337688459064036889
13761468 95 16880740857254724029
13885169 86 11167069468981860458
14211702 104 18201445765806012382
14251751 18 18410577292576969014
14347332 77 18340487889199684883
1454969 45 18408891750838724164
14848178 5 18343018900003862496
14910302 57 18261942029527414717
15052358 14 18114174199309464989
15183329 4 17895186684302455979
15188451 53 17704065170847593268
15250474 111 18341619217438410678
15728490 51 18344145904703672318
16989378 47 18128001683800771628
17492 89 18264775543837572419
17627616 140 17897441683841313147
17857418 61 18341896268714942008
18393751 57 9079122189756725685
19377110 9 12247675010801392617
19958102 18 18261947531491004911
20028762 73 18271805671447812118
21033650 10 16732974298278813693
21304303 282 11258188011920536537
21315764 119 18187357727899070717
22393880 68 17968086556082241225
23559900 14 18340198682765007169
23572383 38 18411980286641756034
249057 3 18335421214933226213
25122255 55 18272657822453708742
255183 313 17770240275226317121
2838139 119 8358247126110291850
3004659 81 18260824912759724112
312425 54 17988926609439167384
312425 83 17749670808987487597
339767 52 18342452630146456594
4015057 19 18261964036665708472
4280585 95 18335413530893173194
439807 62 18339363080272681271
44062 13 18334857234144741117
5104073 3 17846508066236147129
531348 171 18187362078511095301
559249 180 18343019957151606945
6431902 208 18413390951280464226
6437827 68 18411135844257461271
6695519 79 17330578929545978184
7970288 3 18265052423790457658

> <PUBCHEM_SHAPE_MULTIPOLES>
487.56
17.47
3.48
1.15
9.5
0.74
0.03
9.86
4.13
1.15
0.14
-1.64
-0.22
-0.52

> <PUBCHEM_SHAPE_SELFOVERLAP>
1065.426

> <PUBCHEM_SHAPE_VOLUME>
267.3

> <PUBCHEM_COORDINATE_TYPE>
2
5
10

$$$$
87405965
  -OEChem-05102415093D

 37 39  0     0  0  0  0  0  0999 V2000
   -1.8464   -2.8734   -0.8912 S   0  0  0  0  0  0  0  0  0  0  0  0
    5.3118   -1.6039   -0.4263 O   0  0  0  0  0  0  0  0  0  0  0  0
    0.8115    0.3419    1.2351 O   0  0  0  0  0  0  0  0  0  0  0  0
    2.4140   -1.2970    0.9313 N   0  0  0  0  0  0  0  0  0  0  0  0
    0.2735   -1.6909    0.1918 N   0  0  0  0  0  0  0  0  0  0  0  0
   -1.8710   -0.5077    0.1506 N   0  0  0  0  0  0  0  0  0  0  0  0
   -6.2833    2.0305    0.1103 N   0  0  0  0  0  0  0  0  0  0  0  0
    3.5063   -0.5802    1.5374 C   0  0  0  0  0  0  0  0  0  0  0  0
    4.2237    0.2910    0.5597 C   0  0  0  0  0  0  0  0  0  0  0  0
    5.0953   -0.2594   -0.3799 C   0  0  0  0  0  0  0  0  0  0  0  0
    4.0144    1.6696    0.5932 C   0  0  0  0  0  0  0  0  0  0  0  0
   -3.1469   -0.7770   -0.3049 C   0  0  0  0  0  0  0  0  0  0  0  0
   -4.2105    0.1751   -0.1640 C   0  0  0  0  0  0  0  0  0  0  0  0
    1.1190   -0.7734    0.8217 C   0  0  0  0  0  0  0  0  0  0  0  0
   -1.1014   -1.5422   -0.1051 C   0  0  0  0  0  0  0  0  0  0  0  0
    5.7577    0.5688   -1.2859 C   0  0  0  0  0  0  0  0  0  0  0  0
    4.6767    2.4979   -0.3128 C   0  0  0  0  0  0  0  0  0  0  0  0
    5.5484    1.9475   -1.2524 C   0  0  0  0  0  0  0  0  0  0  0  0
   -3.3275   -2.0087   -0.8983 C   0  0  0  0  0  0  0  0  0  0  0  0
   -5.5239   -0.2607   -0.0276 C   0  0  0  0  0  0  0  0  0  0  0  0
   -3.9323    1.5375   -0.1634 C   0  0  0  0  0  0  0  0  0  0  0  0
   -6.5149    0.6985    0.1052 C   0  0  0  0  0  0  0  0  0  0  0  0
   -4.9945    2.4163   -0.0244 C   0  0  0  0  0  0  0  0  0  0  0  0
    3.1200    0.0090    2.3778 H   0  0  0  0  0  0  0  0  0  0  0  0
    4.1927   -1.3186    1.9675 H   0  0  0  0  0  0  0  0  0  0  0  0
    2.5990   -2.2183    0.5466 H   0  0  0  0  0  0  0  0  0  0  0  0
    3.3376    2.1139    1.3182 H   0  0  0  0  0  0  0  0  0  0  0  0
    6.4396    0.1537   -2.0233 H   0  0  0  0  0  0  0  0  0  0  0  0
    4.5136    3.5713   -0.2871 H   0  0  0  0  0  0  0  0  0  0  0  0
    0.6705   -2.5805   -0.0977 H   0  0  0  0  0  0  0  0  0  0  0  0
    6.0640    2.5925   -1.9579 H   0  0  0  0  0  0  0  0  0  0  0  0
   -4.2125   -2.4466   -1.3390 H   0  0  0  0  0  0  0  0  0  0  0  0
   -5.8010   -1.3093   -0.0044 H   0  0  0  0  0  0  0  0  0  0  0  0
   -2.9238    1.9238   -0.2713 H   0  0  0  0  0  0  0  0  0  0  0  0
   -7.5550    0.4109    0.2187 H   0  0  0  0  0  0  0  0  0  0  0  0
   -4.8309    3.4889   -0.0188 H   0  0  0  0  0  0  0  0  0  0  0  0
    5.9438   -1.7993   -1.1393 H   0  0  0  0  0  0  0  0  0  0  0  0
  1 15  1  0  0  0  0
  1 19  1  0  0  0  0
  2 10  1  0  0  0  0
  2 37  1  0  0  0  0
  3 14  2  0  0  0  0
  4  8  1  0  0  0  0
  4 14  1  0  0  0  0
  4 26  1  0  0  0  0
  5 14  1  0  0  0  0
  5 15  1  0  0  0  0
  5 30  1  0  0  0  0
  6 12  1  0  0  0  0
  6 15  2  0  0  0  0
  7 22  2  0  0  0  0
  7 23  1  0  0  0  0
  8  9  1  0  0  0  0
  8 24  1  0  0  0  0
  8 25  1  0  0  0  0
  9 10  1  0  0  0  0
  9 11  2  0  0  0  0
 10 16  2  0  0  0  0
 11 17  1  0  0  0  0
 11 27  1  0  0  0  0
 12 13  1  0  0  0  0
 12 19  2  0  0  0  0
 13 20  2  0  0  0  0
 13 21  1  0  0  0  0
 16 18  1  0  0  0  0
 16 28  1  0  0  0  0
 17 18  2  0  0  0  0
 17 29  1  0  0  0  0
 18 31  1  0  0  0  0
 19 32  1  0  0  0  0
 20 22  1  0  0  0  0
 20 33  1  0  0  0  0
 21 23  2  0  0  0  0
 21 34  1  0  0  0  0
 22 35  1  0  0  0  0
 23 36  1  0  0  0  0
M  END
> <PUBCHEM_COMPOUND_CID>
87405965

> <PUBCHEM_CONFORMER_RMSD>
0.8

> <PUBCHEM_CONFORMER_DIVERSEORDER>
1
123
53
154
12
32
88
109
165
151
54
161
150
91
75
124
145
98
108
63
45
164
115
46
94
71
140
120
73
64
116
23
83
100
111
125
9
47
99
122
38
13
133
121
3
147
82
78
56
130
160
37
89
104
117
68
132
126
42
52
20
40
139
105
15
76
96
97
118
90
24
138
143
44
34
41
10
65
77
95
110
128
14
60
153
72
141
86
136
35
58
102
11
85
158
84
74
144
87
107
26
27
80
163
33
157
43
6
39
162
61
112
134
31
17
129
156
66
137
69
19
149
25
155
18
21
142
114
49
92
28
29
131
103
79
113
67
36
135
30
70
146
62
55
127
50
16
22
152
57
51
159
4
101
8
93
2
148
119
7
81
48
5
59
106

> <PUBCHEM_MMFF94_PARTIAL_CHARGES>
35
1 -0.08
10 0.08
11 -0.15
12 0.17
13 0.05
14 0.69
15 0.44
16 -0.15
17 -0.15
18 -0.15
19 -0.11
2 -0.53
20 -0.15
21 -0.15
22 0.16
23 0.16
26 0.37
27 0.15
28 0.15
29 0.15
3 -0.57
30 0.37
31 0.15
32 0.15
33 0.15
34 0.15
35 0.15
36 0.15
37 0.45
4 -0.73
5 -0.49
6 -0.57
7 -0.62
8 0.44
9 -0.14

> <PUBCHEM_EFFECTIVE_ROTOR_COUNT>
6

> <PUBCHEM_PHARMACOPHORE_FEATURES>
8
1 2 donor
1 3 acceptor
1 4 donor
1 5 donor
1 7 acceptor
5 1 6 12 15 19 rings
6 7 13 20 21 22 23 rings
6 9 10 11 16 17 18 rings

> <PUBCHEM_HEAVY_ATOM_COUNT>
23

> <PUBCHEM_ATOM_DEF_STEREO_COUNT>
0

> <PUBCHEM_ATOM_UDEF_STEREO_COUNT>
0

> <PUBCHEM_BOND_DEF_STEREO_COUNT>
0

> <PUBCHEM_BOND_UDEF_STEREO_COUNT>
0

> <PUBCHEM_ISOTOPIC_ATOM_COUNT>
0

> <PUBCHEM_COMPONENT_COUNT>
1

> <PUBCHEM_CACTVS_TAUTO_COUNT>
15

> <PUBCHEM_CONFORMER_ID>
0535B58D00000001

> <PUBCHEM_MMFF94_ENERGY>
50.5074

> <PUBCHEM_FEATURE_SELFOVERLAP>
40.648

> <PUBCHEM_SHAPE_FINGERPRINT>
10 15 12829494770331453158
10378564 45 18131073732131369996
10554248 39 18193255443693211287
10670039 82 18059582334425571776
10753850 27 10663815287355218823
11056379 131 18196932386628403191
11796584 16 13326560857249975389
11991303 11 17489583515496635695
12390115 104 18131355190070798891
12596602 18 17385721379441284289
12616971 3 18040981948068978178
13885169 86 18261118503728770725
13914758 101 12679193695741949851
13955234 65 16805871906621169514
14251751 18 8502656995448906517
14251757 5 18272934963697543889
14251764 75 16011306702098980156
14528608 73 18408039636867268088
1454969 45 18411131451597557383
14790565 3 18410293588528270321
14840074 17 17894914031421050773
14848178 5 10807937063373063816
14933364 13 18408046208130242747
15001296 14 18261389013395927537
15183329 4 17561091293052646424
15188451 53 9799417693775741772
15210252 30 18041281092963839204
15575132 122 18187922838221386029
17349148 13 11599731722042119226
17844677 252 18338239378893040106
17857418 61 10159698001522218153
17959699 21 18409450319165666266
18222031 100 12175629507602785826
19377110 9 11819279992258547498
19611394 137 18042983132810340995
20567600 70 8790586118389121607
21315764 119 18201449060383369862
22061861 79 15698000751329939508
22079108 93 16805604784823605811
2215653 11 16774080678390608870
23559900 14 17346310548910992314
249057 3 18340487773351833550
29717793 49 13830132793125123442
3004659 81 18343300336990992954
32948 21 18202562895600476978
3298306 158 17561081414744540830
3472631 163 18410857680657967854
38570 142 18114189626911243226
393628 194 17463982615816164332
394071 54 16370732582031060820
4058900 60 18268999687650466891
5104073 3 17313658360759461018
56616090 163 18201721747503882919
59682541 52 16056882377713117885
633830 44 18260541251824508146
6438161 24 9511168635181320393
7062679 6 18409728465400382029
7808743 9 18411694405218276251
8988823 20 9583512110500114802
960060 61 15554451842413808056

> <PUBCHEM_SHAPE_MULTIPOLES>
445.52
17.89
2.83
1.11
1.01
0.12
-0.05
10.79
3.22
1.32
0.64
-1.4
-0.11
-1.39

> <PUBCHEM_SHAPE_SELFOVERLAP>
953.093

> <PUBCHEM_SHAPE_VOLUME>
247.9

> <PUBCHEM_COORDINATE_TYPE>
2
5
10

$$$$
87405953
  -OEChem-05102415093D

 37 39  0     0  0  0  0  0  0999 V2000
   -2.0670   -2.7485   -1.2832 S   0  0  0  0  0  0  0  0  0  0  0  0
    6.4901    2.2531   -1.5962 O   0  0  0  0  0  0  0  0  0  0  0  0
    0.7126   -0.0525    1.3493 O   0  0  0  0  0  0  0  0  0  0  0  0
    2.2200   -1.7323    0.8474 N   0  0  0  0  0  0  0  0  0  0  0  0
    0.0851   -1.8750    0.0092 N   0  0  0  0  0  0  0  0  0  0  0  0
   -1.9803   -0.5604    0.0907 N   0  0  0  0  0  0  0  0  0  0  0  0
   -6.2250    2.2401    0.3172 N   0  0  0  0  0  0  0  0  0  0  0  0
    3.3346   -1.1827    1.5768 C   0  0  0  0  0  0  0  0  0  0  0  0
    4.1690   -0.2750    0.7383 C   0  0  0  0  0  0  0  0  0  0  0  0
    5.0363   -0.8071   -0.2159 C   0  0  0  0  0  0  0  0  0  0  0  0
    4.0818    1.1068    0.9080 C   0  0  0  0  0  0  0  0  0  0  0  0
   -3.2549   -0.6776   -0.4287 C   0  0  0  0  0  0  0  0  0  0  0  0
   -4.2622    0.3118   -0.1757 C   0  0  0  0  0  0  0  0  0  0  0  0
   -1.2677   -1.5957   -0.2948 C   0  0  0  0  0  0  0  0  0  0  0  0
    0.9645   -1.1147    0.7853 C   0  0  0  0  0  0  0  0  0  0  0  0
    5.8165    0.0424   -1.0002 C   0  0  0  0  0  0  0  0  0  0  0  0
    4.8620    1.9564    0.1238 C   0  0  0  0  0  0  0  0  0  0  0  0
    5.7293    1.4242   -0.8303 C   0  0  0  0  0  0  0  0  0  0  0  0
   -3.4913   -1.7968   -1.1990 C   0  0  0  0  0  0  0  0  0  0  0  0
   -5.6035   -0.0522   -0.1346 C   0  0  0  0  0  0  0  0  0  0  0  0
   -3.9011    1.6389    0.0295 C   0  0  0  0  0  0  0  0  0  0  0  0
   -6.5377    0.9407    0.1132 C   0  0  0  0  0  0  0  0  0  0  0  0
   -4.9114    2.5562    0.2700 C   0  0  0  0  0  0  0  0  0  0  0  0
    2.9598   -0.6630    2.4664 H   0  0  0  0  0  0  0  0  0  0  0  0
    3.9397   -2.0232    1.9361 H   0  0  0  0  0  0  0  0  0  0  0  0
    2.3604   -2.5991    0.3374 H   0  0  0  0  0  0  0  0  0  0  0  0
    5.1128   -1.8820   -0.3574 H   0  0  0  0  0  0  0  0  0  0  0  0
    3.4094    1.5356    1.6463 H   0  0  0  0  0  0  0  0  0  0  0  0
    6.4902   -0.3780   -1.7419 H   0  0  0  0  0  0  0  0  0  0  0  0
    4.7846    3.0310    0.2655 H   0  0  0  0  0  0  0  0  0  0  0  0
    0.4360   -2.7378   -0.3972 H   0  0  0  0  0  0  0  0  0  0  0  0
   -4.3867   -2.1080   -1.7191 H   0  0  0  0  0  0  0  0  0  0  0  0
   -5.9449   -1.0729   -0.2705 H   0  0  0  0  0  0  0  0  0  0  0  0
   -2.8679    1.9699    0.0024 H   0  0  0  0  0  0  0  0  0  0  0  0
   -7.5966    0.7083    0.1595 H   0  0  0  0  0  0  0  0  0  0  0  0
   -4.6827    3.6039    0.4353 H   0  0  0  0  0  0  0  0  0  0  0  0
    6.3028    3.1740   -1.3454 H   0  0  0  0  0  0  0  0  0  0  0  0
  1 14  1  0  0  0  0
  1 19  1  0  0  0  0
  2 18  1  0  0  0  0
  2 37  1  0  0  0  0
  3 15  2  0  0  0  0
  4  8  1  0  0  0  0
  4 15  1  0  0  0  0
  4 26  1  0  0  0  0
  5 14  1  0  0  0  0
  5 15  1  0  0  0  0
  5 31  1  0  0  0  0
  6 12  1  0  0  0  0
  6 14  2  0  0  0  0
  7 22  2  0  0  0  0
  7 23  1  0  0  0  0
  8  9  1  0  0  0  0
  8 24  1  0  0  0  0
  8 25  1  0  0  0  0
  9 10  2  0  0  0  0
  9 11  1  0  0  0  0
 10 16  1  0  0  0  0
 10 27  1  0  0  0  0
 11 17  2  0  0  0  0
 11 28  1  0  0  0  0
 12 13  1  0  0  0  0
 12 19  2  0  0  0  0
 13 20  2  0  0  0  0
 13 21  1  0  0  0  0
 16 18  2  0  0  0  0
 16 29  1  0  0  0  0
 17 18  1  0  0  0  0
 17 30  1  0  0  0  0
 19 32  1  0  0  0  0
 20 22  1  0  0  0  0
 20 33  1  0  0  0  0
 21 23  2  0  0  0  0
 21 34  1  0  0  0  0
 22 35  1  0  0  0  0
 23 36  1  0  0  0  0
M  END
> <PUBCHEM_COMPOUND_CID>
87405953

> <PUBCHEM_CONFORMER_RMSD>
0.8

> <PUBCHEM_CONFORMER_DIVERSEORDER>
1
6
25
52
29
7
58
54
43
21
28
53
24
48
11
27
26
59
39
33
12
14
38
46
16
8
20
49
55
51
23
40
36
56
13
47
35
4
37
60
44
41
32
15
45
17
3
50
18
2
57
5
42
10
9
30
34
31
19
22

> <PUBCHEM_MMFF94_PARTIAL_CHARGES>
35
1 -0.08
10 -0.15
11 -0.15
12 0.17
13 0.05
14 0.44
15 0.69
16 -0.15
17 -0.15
18 0.08
19 -0.11
2 -0.53
20 -0.15
21 -0.15
22 0.16
23 0.16
26 0.37
27 0.15
28 0.15
29 0.15
3 -0.57
30 0.15
31 0.37
32 0.15
33 0.15
34 0.15
35 0.15
36 0.15
37 0.45
4 -0.73
5 -0.49
6 -0.57
7 -0.62
8 0.44
9 -0.14

> <PUBCHEM_EFFECTIVE_ROTOR_COUNT>
6

> <PUBCHEM_PHARMACOPHORE_FEATURES>
8
1 2 donor
1 3 acceptor
1 4 donor
1 5 donor
1 7 acceptor
5 1 6 12 14 19 rings
6 7 13 20 21 22 23 rings
6 9 10 11 16 17 18 rings

> <PUBCHEM_HEAVY_ATOM_COUNT>
23

> <PUBCHEM_ATOM_DEF_STEREO_COUNT>
0

> <PUBCHEM_ATOM_UDEF_STEREO_COUNT>
0

> <PUBCHEM_BOND_DEF_STEREO_COUNT>
0

> <PUBCHEM_BOND_UDEF_STEREO_COUNT>
0

> <PUBCHEM_ISOTOPIC_ATOM_COUNT>
0

> <PUBCHEM_COMPONENT_COUNT>
1

> <PUBCHEM_CACTVS_TAUTO_COUNT>
10

> <PUBCHEM_CONFORMER_ID>
0535B58100000001

> <PUBCHEM_MMFF94_ENERGY>
49.7711

> <PUBCHEM_FEATURE_SELFOVERLAP>
40.648

> <PUBCHEM_SHAPE_FINGERPRINT>
10 15 13334742349279638174
10378564 45 17988927760849072038
10554248 39 18195225759829520535
10670039 82 17845941718995190992
10753850 27 10231748999028423711
11056379 131 18199462350035956823
11273773 42 18187650266468702332
11991303 11 17203320157025302215
12390115 104 17989489594190254283
12596602 18 17675923167051265889
12616971 3 18041825251991715826
13690498 29 17701533146035560799
13885169 86 18114471140178909636
13914758 101 12247690361668818075
13955234 65 16950831511074314930
14251751 18 7925911473881299124
14251757 5 18130786784770277443
14251764 75 17895482543884419836
14528608 73 18410289233436499138
1454969 45 18413099560215511559
14790565 3 18412543176460178537
14840074 17 18113900450884351301
14848178 5 10375869675687400984
15183329 4 17346887736343252792
15188451 53 9151178631961981718
15210252 30 18187365493522259788
15575132 122 18262514793644793573
15685185 35 17533515666679201412
16991971 28 17698987807695270543
17349148 13 10879713238289916042
17857418 61 9727631721790548043
17959699 21 18411418427794423330
20621476 91 13334744552344556241
21298829 104 18261396715179443180
21315763 87 14634870829751903289
21315764 119 18131642166705541190
22061861 79 15339117957106021100
2215653 11 16128657457302623822
23559900 14 17060049402332154402
255183 451 16980376763103268127
268830 7 17895460475894300434
3004659 81 18201154348455070202
3472631 163 18412545413890116286
34797466 226 16988273308739917266
3610482 184 18337676411580324166
38570 142 18260556606247863946
393628 194 17680998706231815124
4058900 60 18199475368381965699
445580 204 18335422417871988268
5104073 3 17240758528003796218
543368 44 18260827145868353037
5718773 13 11959468756025090804
5911458 16 18333740121488461012
59682541 52 15554446241428307517
633830 44 18260259759704968570
6438161 24 9150879565411435729
7062679 6 18411979152764692681
7808743 9 18341887490028772219

> <PUBCHEM_SHAPE_MULTIPOLES>
445.52
18.59
2.84
1.23
3.48
0.22
-0.03
13.43
-3.77
-1.83
-0.61
1.61
-0.19
-2.38

> <PUBCHEM_SHAPE_SELFOVERLAP>
952.091

> <PUBCHEM_SHAPE_VOLUME>
248.7

> <PUBCHEM_COORDINATE_TYPE>
2
5
10

$$$$
89424114
  -OEChem-05102415093D

 42 44  0     0  0  0  0  0  0999 V2000
   -2.9705   -3.0990   -0.8156 S   0  0  0  0  0  0  0  0  0  0  0  0
    0.3264   -0.4449    1.1869 O   0  0  0  0  0  0  0  0  0  0  0  0
    3.3248    2.8481    1.0912 O   0  0  0  0  0  0  0  0  0  0  0  0
    1.5458   -2.3926    0.9320 N   0  0  0  0  0  0  0  0  0  0  0  0
   -0.6375   -2.3526    0.2164 N   0  0  0  0  0  0  0  0  0  0  0  0
    4.7522    2.0678   -0.6124 N   0  0  0  0  0  0  0  0  0  0  0  0
   -2.4870   -0.7480    0.1444 N   0  0  0  0  0  0  0  0  0  0  0  0
   -6.2700    2.6563    0.0369 N   0  0  0  0  0  0  0  0  0  0  0  0
    4.4925    4.3266   -0.2015 N   0  0  0  0  0  0  0  0  0  0  0  0
    3.6699   -1.2846    0.4902 C   0  0  0  0  0  0  0  0  0  0  0  0
    2.7717   -1.9012    1.5084 C   0  0  0  0  0  0  0  0  0  0  0  0
    3.7906    0.1031    0.4153 C   0  0  0  0  0  0  0  0  0  0  0  0
    4.6309    0.6798   -0.5370 C   0  0  0  0  0  0  0  0  0  0  0  0
    4.3896   -2.0956   -0.3875 C   0  0  0  0  0  0  0  0  0  0  0  0
    5.3505   -0.1312   -1.4147 C   0  0  0  0  0  0  0  0  0  0  0  0
    5.2295   -1.5188   -1.3401 C   0  0  0  0  0  0  0  0  0  0  0  0
    0.3887   -1.6128    0.8106 C   0  0  0  0  0  0  0  0  0  0  0  0
   -3.7962   -0.7585   -0.2957 C   0  0  0  0  0  0  0  0  0  0  0  0
   -4.6351    0.3995   -0.1829 C   0  0  0  0  0  0  0  0  0  0  0  0
   -1.9541   -1.9288   -0.0791 C   0  0  0  0  0  0  0  0  0  0  0  0
   -4.2377   -1.9437   -0.8457 C   0  0  0  0  0  0  0  0  0  0  0  0
   -6.0090    0.2536   -0.0255 C   0  0  0  0  0  0  0  0  0  0  0  0
   -4.0779    1.6725   -0.2304 C   0  0  0  0  0  0  0  0  0  0  0  0
    4.1183    3.0435    0.1741 C   0  0  0  0  0  0  0  0  0  0  0  0
   -6.7756    1.4030    0.0787 C   0  0  0  0  0  0  0  0  0  0  0  0
   -4.9308    2.7585   -0.1169 C   0  0  0  0  0  0  0  0  0  0  0  0
    2.5323   -1.1909    2.3084 H   0  0  0  0  0  0  0  0  0  0  0  0
    3.2742   -2.7509    1.9851 H   0  0  0  0  0  0  0  0  0  0  0  0
    3.2072    0.6796    1.1196 H   0  0  0  0  0  0  0  0  0  0  0  0
    4.3038   -3.1780   -0.3390 H   0  0  0  0  0  0  0  0  0  0  0  0
    1.5289   -3.3444    0.5785 H   0  0  0  0  0  0  0  0  0  0  0  0
    6.0090    0.3045   -2.1619 H   0  0  0  0  0  0  0  0  0  0  0  0
    5.7896   -2.1503   -2.0236 H   0  0  0  0  0  0  0  0  0  0  0  0
   -0.4390   -3.3147   -0.0441 H   0  0  0  0  0  0  0  0  0  0  0  0
    5.3819    2.4172   -1.3306 H   0  0  0  0  0  0  0  0  0  0  0  0
   -5.1998   -2.2003   -1.2671 H   0  0  0  0  0  0  0  0  0  0  0  0
   -6.4993   -0.7123    0.0350 H   0  0  0  0  0  0  0  0  0  0  0  0
   -3.0122    1.8351   -0.3561 H   0  0  0  0  0  0  0  0  0  0  0  0
   -7.8514    1.3438    0.2068 H   0  0  0  0  0  0  0  0  0  0  0  0
   -4.5462    3.7726   -0.1489 H   0  0  0  0  0  0  0  0  0  0  0  0
    5.1474    4.4917   -0.9584 H   0  0  0  0  0  0  0  0  0  0  0  0
    4.1191    5.1417    0.2732 H   0  0  0  0  0  0  0  0  0  0  0  0
  1 20  1  0  0  0  0
  1 21  1  0  0  0  0
  2 17  2  0  0  0  0
  3 24  2  0  0  0  0
  4 11  1  0  0  0  0
  4 17  1  0  0  0  0
  4 31  1  0  0  0  0
  5 17  1  0  0  0  0
  5 20  1  0  0  0  0
  5 34  1  0  0  0  0
  6 13  1  0  0  0  0
  6 24  1  0  0  0  0
  6 35  1  0  0  0  0
  7 18  1  0  0  0  0
  7 20  2  0  0  0  0
  8 25  2  0  0  0  0
  8 26  1  0  0  0  0
  9 24  1  0  0  0  0
  9 41  1  0  0  0  0
  9 42  1  0  0  0  0
 10 11  1  0  0  0  0
 10 12  2  0  0  0  0
 10 14  1  0  0  0  0
 11 27  1  0  0  0  0
 11 28  1  0  0  0  0
 12 13  1  0  0  0  0
 12 29  1  0  0  0  0
 13 15  2  0  0  0  0
 14 16  2  0  0  0  0
 14 30  1  0  0  0  0
 15 16  1  0  0  0  0
 15 32  1  0  0  0  0
 16 33  1  0  0  0  0
 18 19  1  0  0  0  0
 18 21  2  0  0  0  0
 19 22  2  0  0  0  0
 19 23  1  0  0  0  0
 21 36  1  0  0  0  0
 22 25  1  0  0  0  0
 22 37  1  0  0  0  0
 23 26  2  0  0  0  0
 23 38  1  0  0  0  0
 25 39  1  0  0  0  0
 26 40  1  0  0  0  0
M  END
> <PUBCHEM_COMPOUND_CID>
89424114

> <PUBCHEM_CONFORMER_RMSD>
1

> <PUBCHEM_CONFORMER_DIVERSEORDER>
1
132
118
65
82
87
117
113
52
81
141
133
127
139
143
88
140
144
53
119
49
90
146
2
96
91
129
131
47
23
98
20
109
48
149
122
112
137
70
126
57
142
15
75
123
18
56
39
125
104
114
124
73
101
99
59
4
6
121
95
134
40
43
26
130
89
135
32
34
5
97
17
105
3
22
108
100
84
120
147
29
74
24
66
62
67
25
92
16
111
44
116
145
93
28
50
54
106
128
71
64
76
150
69
86
51
36
10
45
136
138
61
8
37
78
19
58
35
60
31
63
11
72
7
83
102
33
103
41
80
115
110
12
13
148
77
46
55
21
9
14
38
42
107
30
27
85
68
79
94

> <PUBCHEM_MMFF94_PARTIAL_CHARGES>
40
1 -0.08
10 -0.14
11 0.44
12 -0.15
13 0.12
14 -0.15
15 -0.15
16 -0.15
17 0.69
18 0.17
19 0.05
2 -0.57
20 0.44
21 -0.11
22 -0.15
23 -0.15
24 0.69
25 0.16
26 0.16
29 0.15
3 -0.57
30 0.15
31 0.37
32 0.15
33 0.15
34 0.37
35 0.37
36 0.15
37 0.15
38 0.15
39 0.15
4 -0.73
40 0.15
41 0.37
42 0.37
5 -0.49
6 -0.55
7 -0.57
8 -0.62
9 -0.8

> <PUBCHEM_EFFECTIVE_ROTOR_COUNT>
8

> <PUBCHEM_PHARMACOPHORE_FEATURES>
10
1 2 acceptor
1 3 acceptor
1 4 donor
1 5 donor
1 6 donor
1 8 acceptor
1 9 donor
5 1 7 18 20 21 rings
6 10 12 13 14 15 16 rings
6 8 19 22 23 25 26 rings

> <PUBCHEM_HEAVY_ATOM_COUNT>
26

> <PUBCHEM_ATOM_DEF_STEREO_COUNT>
0

> <PUBCHEM_ATOM_UDEF_STEREO_COUNT>
0

> <PUBCHEM_BOND_DEF_STEREO_COUNT>
0

> <PUBCHEM_BOND_UDEF_STEREO_COUNT>
0

> <PUBCHEM_ISOTOPIC_ATOM_COUNT>
0

> <PUBCHEM_COMPONENT_COUNT>
1

> <PUBCHEM_CACTVS_TAUTO_COUNT>
15

> <PUBCHEM_CONFORMER_ID>
055480F200000001

> <PUBCHEM_MMFF94_ENERGY>
62.2059

> <PUBCHEM_FEATURE_SELFOVERLAP>
50.848

> <PUBCHEM_SHAPE_FINGERPRINT>
10638233 991 18408881833147294847
11070050 100 16370723703943315234
11101153 10 18338230587775285511
11273773 38 17907860600608268137
11720765 8 18059859420836547466
11991303 11 17632852049786707879
1200032 147 16371590205796730292
12596602 18 17313388860446950899
13885169 86 18411142416232475625
14068700 686 17551784141914455985
14187579 7 18339921648783914933
14429114 114 18266454497840446417
14528608 73 18408039615197642511
14790565 3 18337671923835234971
14840074 17 17822297838494920213
14848178 5 10231753375204732387
15001296 14 18335134310774949113
15142526 21 18113335310661185051
15183329 4 17845940627999572715
15188451 53 9943518583700273671
15575132 122 18043247951624484453
17844677 252 18411422846788672290
17959699 21 18410574015501377394
19053607 189 18195802106087189768
19304144 158 17842553230981044010
20691028 202 18341046325300961273
22122407 14 18335147444963652201
23559900 14 17988639692702371554
245318 6 17895771693366549085
249057 3 18342458085040175142
2747138 104 17824558584995307611
2838139 119 18410289169318061951
312425 83 18201162165042270382
3472631 163 18412544297531214479
38570 142 18114474352772508747
393628 179 17622151791424871560
508180 173 18411429393167501978
5104073 3 17749382697980356218
5223283 242 17913232882961379326
5312510 48 18409732863331037088
57091435 61 18262512723375065568
5951187 136 18341622503404819486
59682541 52 15984252999216789831
633830 44 18336819875001192078

> <PUBCHEM_SHAPE_MULTIPOLES>
497.29
17.86
4.48
1.1
9.98
3.43
-0.03
11.01
3.86
-1.89
0.02
-1.26
-0.44
-0.56

> <PUBCHEM_SHAPE_SELFOVERLAP>
1058.913

> <PUBCHEM_SHAPE_VOLUME>
277.5

> <PUBCHEM_COORDINATE_TYPE>
2
5
10

$$$$
87408525
  -OEChem-05102415093D

 44 46  0     0  0  0  0  0  0999 V2000
    4.1248   -2.9880    0.4476 S   0  0  0  0  0  0  0  0  0  0  0  0
   -3.1045    2.7778    1.5675 S   0  0  0  0  0  0  0  0  0  0  0  0
    4.6163   -4.2876    0.0294 O   0  0  0  0  0  0  0  0  0  0  0  0
    4.3105   -2.5341    1.8115 O   0  0  0  0  0  0  0  0  0  0  0  0
    0.0659    0.9396   -1.3468 O   0  0  0  0  0  0  0  0  0  0  0  0
    4.6831   -1.8077   -0.6755 N   0  0  0  0  0  0  0  0  0  0  0  0
    1.2606    2.7908   -0.6455 N   0  0  0  0  0  0  0  0  0  0  0  0
   -0.8525    2.4549    0.1930 N   0  0  0  0  0  0  0  0  0  0  0  0
   -2.6541    0.8132   -0.0510 N   0  0  0  0  0  0  0  0  0  0  0  0
   -6.3401   -2.6506   -0.6229 N   0  0  0  0  0  0  0  0  0  0  0  0
    3.4379    1.6994   -0.6969 C   0  0  0  0  0  0  0  0  0  0  0  0
    2.4431    2.5354   -1.4283 C   0  0  0  0  0  0  0  0  0  0  0  0
    4.5240   -0.4291   -0.3401 C   0  0  0  0  0  0  0  0  0  0  0  0
    3.5939    0.3528   -1.0252 C   0  0  0  0  0  0  0  0  0  0  0  0
    4.2119    2.2644    0.3169 C   0  0  0  0  0  0  0  0  0  0  0  0
    5.2980    0.1358    0.6737 C   0  0  0  0  0  0  0  0  0  0  0  0
    5.1418    1.4825    1.0023 C   0  0  0  0  0  0  0  0  0  0  0  0
    0.1350    1.9573   -0.6619 C   0  0  0  0  0  0  0  0  0  0  0  0
    2.3817   -2.9576    0.0947 C   0  0  0  0  0  0  0  0  0  0  0  0
   -3.9210    0.6417    0.4720 C   0  0  0  0  0  0  0  0  0  0  0  0
   -2.1297    1.9069    0.4557 C   0  0  0  0  0  0  0  0  0  0  0  0
   -4.7414   -0.4748    0.1007 C   0  0  0  0  0  0  0  0  0  0  0  0
   -4.3392    1.6049    1.3661 C   0  0  0  0  0  0  0  0  0  0  0  0
   -6.1265   -0.3521    0.0955 C   0  0  0  0  0  0  0  0  0  0  0  0
   -4.1548   -1.6841   -0.2556 C   0  0  0  0  0  0  0  0  0  0  0  0
   -6.8742   -1.4596   -0.2706 C   0  0  0  0  0  0  0  0  0  0  0  0
   -4.9907   -2.7320   -0.6063 C   0  0  0  0  0  0  0  0  0  0  0  0
    2.8844    3.5056   -1.6845 H   0  0  0  0  0  0  0  0  0  0  0  0
    2.1521    2.0636   -2.3743 H   0  0  0  0  0  0  0  0  0  0  0  0
    2.9897   -0.0913   -1.8131 H   0  0  0  0  0  0  0  0  0  0  0  0
    4.0997    3.3125    0.5816 H   0  0  0  0  0  0  0  0  0  0  0  0
    4.4923   -2.0211   -1.6638 H   0  0  0  0  0  0  0  0  0  0  0  0
    6.0358   -0.4568    1.2083 H   0  0  0  0  0  0  0  0  0  0  0  0
    5.7463    1.9229    1.7898 H   0  0  0  0  0  0  0  0  0  0  0  0
    1.2535    3.6040   -0.0374 H   0  0  0  0  0  0  0  0  0  0  0  0
    1.9770   -1.9780    0.3544 H   0  0  0  0  0  0  0  0  0  0  0  0
    2.2284   -3.1797   -0.9630 H   0  0  0  0  0  0  0  0  0  0  0  0
    1.9023   -3.7258    0.7058 H   0  0  0  0  0  0  0  0  0  0  0  0
   -0.6533    3.3135    0.6987 H   0  0  0  0  0  0  0  0  0  0  0  0
   -5.2672    1.6902    1.9144 H   0  0  0  0  0  0  0  0  0  0  0  0
   -6.6407    0.5693    0.3475 H   0  0  0  0  0  0  0  0  0  0  0  0
   -3.0790   -1.8276   -0.2619 H   0  0  0  0  0  0  0  0  0  0  0  0
   -7.9581   -1.4151   -0.2947 H   0  0  0  0  0  0  0  0  0  0  0  0
   -4.5831   -3.6964   -0.8912 H   0  0  0  0  0  0  0  0  0  0  0  0
  1  3  2  0  0  0  0
  1  4  2  0  0  0  0
  1  6  1  0  0  0  0
  1 19  1  0  0  0  0
  2 21  1  0  0  0  0
  2 23  1  0  0  0  0
  5 18  2  0  0  0  0
  6 13  1  0  0  0  0
  6 32  1  0  0  0  0
  7 12  1  0  0  0  0
  7 18  1  0  0  0  0
  7 35  1  0  0  0  0
  8 18  1  0  0  0  0
  8 21  1  0  0  0  0
  8 39  1  0  0  0  0
  9 20  1  0  0  0  0
  9 21  2  0  0  0  0
 10 26  2  0  0  0  0
 10 27  1  0  0  0  0
 11 12  1  0  0  0  0
 11 14  2  0  0  0  0
 11 15  1  0  0  0  0
 12 28  1  0  0  0  0
 12 29  1  0  0  0  0
 13 14  1  0  0  0  0
 13 16  2  0  0  0  0
 14 30  1  0  0  0  0
 15 17  2  0  0  0  0
 15 31  1  0  0  0  0
 16 17  1  0  0  0  0
 16 33  1  0  0  0  0
 17 34  1  0  0  0  0
 19 36  1  0  0  0  0
 19 37  1  0  0  0  0
 19 38  1  0  0  0  0
 20 22  1  0  0  0  0
 20 23  2  0  0  0  0
 22 24  2  0  0  0  0
 22 25  1  0  0  0  0
 23 40  1  0  0  0  0
 24 26  1  0  0  0  0
 24 41  1  0  0  0  0
 25 27  2  0  0  0  0
 25 42  1  0  0  0  0
 26 43  1  0  0  0  0
 27 44  1  0  0  0  0
M  END
> <PUBCHEM_COMPOUND_CID>
87408525

> <PUBCHEM_CONFORMER_RMSD>
1

> <PUBCHEM_CONFORMER_DIVERSEORDER>
1
199
71
143
175
240
6
222
157
165
236
223
141
49
131
186
31
125
135
122
181
224
84
243
114
245
177
265
267
121
144
260
150
249
197
192
129
170
138
266
171
259
182
41
92
62
200
46
110
246
100
89
256
158
7
120
176
163
235
27
55
227
65
128
98
254
77
169
156
258
244
36
130
214
239
155
188
248
113
67
253
97
193
136
196
124
81
251
95
12
87
61
145
119
250
146
164
82
29
167
123
264
204
142
34
255
107
154
226
109
238
134
80
47
215
185
57
18
225
105
217
149
263
2
88
213
79
74
70
242
96
147
10
178
51
160
179
44
257
231
85
198
32
159
102
72
232
219
45
11
252
30
203
220
180
33
66
212
161
16
53
5
24
261
75
40
205
56
43
209
78
194
233
153
139
86
172
21
191
234
187
9
137
91
112
195
140
183
20
247
208
133
76
229
25
237
166
23
262
104
59
93
115
132
111
38
168
210
60
241
162
3
173
52
108
99
17
202
48
190
35
184
42
148
221
26
126
50
151
58
152
63
39
94
13
189
4
8
37
68
201
218
64
207
211
116
230
69
103
118
106
83
22
54
206
90
174
101
14
117
19
216
73
28
228
127
15

> <PUBCHEM_MMFF94_PARTIAL_CHARGES>
39
1 1.33
10 -0.62
11 -0.14
12 0.44
13 0.2
14 -0.15
15 -0.15
16 -0.15
17 -0.15
18 0.69
19 0.11
2 -0.08
20 0.17
21 0.44
22 0.05
23 -0.11
24 -0.15
25 -0.15
26 0.16
27 0.16
3 -0.65
30 0.15
31 0.15
32 0.42
33 0.15
34 0.15
35 0.37
39 0.37
4 -0.65
40 0.15
41 0.15
42 0.15
43 0.15
44 0.15
5 -0.57
6 -0.76
7 -0.73
8 -0.49
9 -0.57

> <PUBCHEM_EFFECTIVE_ROTOR_COUNT>
8

> <PUBCHEM_PHARMACOPHORE_FEATURES>
10
1 10 acceptor
1 3 acceptor
1 4 acceptor
1 5 acceptor
1 6 donor
1 7 donor
1 8 donor
5 2 9 20 21 23 rings
6 10 22 24 25 26 27 rings
6 11 13 14 15 16 17 rings

> <PUBCHEM_HEAVY_ATOM_COUNT>
27

> <PUBCHEM_ATOM_DEF_STEREO_COUNT>
0

> <PUBCHEM_ATOM_UDEF_STEREO_COUNT>
0

> <PUBCHEM_BOND_DEF_STEREO_COUNT>
0

> <PUBCHEM_BOND_UDEF_STEREO_COUNT>
0

> <PUBCHEM_ISOTOPIC_ATOM_COUNT>
0

> <PUBCHEM_COMPONENT_COUNT>
1

> <PUBCHEM_CACTVS_TAUTO_COUNT>
5

> <PUBCHEM_CONFORMER_ID>
0535BF8D00000001

> <PUBCHEM_MMFF94_ENERGY>
61.4789

> <PUBCHEM_FEATURE_SELFOVERLAP>
50.816

> <PUBCHEM_SHAPE_FINGERPRINT>
10571361 74 18413106173748443559
10622 236 18411694383722548799
10928967 22 17900552172693181234
10939801 23 17986391315745428164
11146346 40 17335588270827831487
11443803 9 17970633116262512556
1200032 147 13757777292420269954
12107183 9 18051986826538928857
12596602 18 17846785109065012328
12645989 146 18121504553402421594
13533116 47 18411703222253592761
1361 2 18335702766981789674
13692114 37 18194963174968283432
14211702 104 18339933705079037143
14251740 57 18340487768882467858
14347332 77 18409446990756318573
14394314 77 18343025514929206113
14950920 106 17987517009578249872
15001296 14 18335419122930562603
15119646 104 18410014351693465177
15183329 4 14923933562081315293
15188451 53 18341046401892934625
15250474 111 18411144657746448485
15361156 5 17823435811202079252
17492 89 18339359644055666542
17857418 61 18339082695927441949
20028762 73 18412828005959601182
21033648 29 14907905925475288913
21197605 99 18340486776729445126
21458453 9 13182455651089650079
21585483 132 17555998519341576031
22224240 67 18339358686874883640
25222932 49 17916862534290626108
260245 28 18340761658663013623
312425 54 18130514028440508649
373842 8 18336548329867641611
3886686 26 17768257807962069721
5085150 59 18059855027079787701
508706 21 17023191474582237745
5104073 3 17917999347261118225
5326457 24 18411420626627599307
7970288 3 18268709583994644295
9555976 147 17631176290569367737

> <PUBCHEM_SHAPE_MULTIPOLES>
520.83
17.65
4.78
1.24
13.12
3.15
0.19
11.36
1.36
-3.07
0.42
-0.53
-0.46
-2.94

> <PUBCHEM_SHAPE_SELFOVERLAP>
1088.496

> <PUBCHEM_SHAPE_VOLUME>
296.8

> <PUBCHEM_COORDINATE_TYPE>
2
5
10

$$$$
87408321
  -OEChem-05102415093D

 43 45  0     0  0  0  0  0  0999 V2000
   -3.2208   -2.7682   -1.3434 S   0  0  0  0  0  0  0  0  0  0  0  0
    0.0196   -0.6889    1.3211 O   0  0  0  0  0  0  0  0  0  0  0  0
    6.2690    2.5370   -1.2795 O   0  0  0  0  0  0  0  0  0  0  0  0
    1.1936   -2.6008    0.7625 N   0  0  0  0  0  0  0  0  0  0  0  0
    4.6251    1.9348    0.2996 N   0  0  0  0  0  0  0  0  0  0  0  0
   -0.9373   -2.3326   -0.0548 N   0  0  0  0  0  0  0  0  0  0  0  0
   -2.7292   -0.6678    0.0811 N   0  0  0  0  0  0  0  0  0  0  0  0
   -6.3933    2.8492    0.4217 N   0  0  0  0  0  0  0  0  0  0  0  0
    3.3740   -1.5186    0.6663 C   0  0  0  0  0  0  0  0  0  0  0  0
    2.3943   -2.2811    1.4923 C   0  0  0  0  0  0  0  0  0  0  0  0
    3.5410   -0.1487    0.8695 C   0  0  0  0  0  0  0  0  0  0  0  0
    4.4575    0.5646    0.0969 C   0  0  0  0  0  0  0  0  0  0  0  0
    4.1236   -2.1753   -0.3098 C   0  0  0  0  0  0  0  0  0  0  0  0
    5.2071   -0.0922   -0.8793 C   0  0  0  0  0  0  0  0  0  0  0  0
    5.0399   -1.4620   -1.0828 C   0  0  0  0  0  0  0  0  0  0  0  0
    0.0707   -1.7643    0.7293 C   0  0  0  0  0  0  0  0  0  0  0  0
   -4.0073   -0.5387   -0.4266 C   0  0  0  0  0  0  0  0  0  0  0  0
   -4.8164    0.6101   -0.1389 C   0  0  0  0  0  0  0  0  0  0  0  0
   -2.2189   -1.8050   -0.3369 C   0  0  0  0  0  0  0  0  0  0  0  0
   -4.4481   -1.5766   -1.2207 C   0  0  0  0  0  0  0  0  0  0  0  0
    5.4891    2.8094   -0.3727 C   0  0  0  0  0  0  0  0  0  0  0  0
   -5.7588    1.0492   -1.0623 C   0  0  0  0  0  0  0  0  0  0  0  0
   -4.6617    1.2893    1.0646 C   0  0  0  0  0  0  0  0  0  0  0  0
   -6.5153    2.1636   -0.7371 C   0  0  0  0  0  0  0  0  0  0  0  0
   -5.4673    2.3929    1.2947 C   0  0  0  0  0  0  0  0  0  0  0  0
    5.3699    4.2209    0.1452 C   0  0  0  0  0  0  0  0  0  0  0  0
    2.8392   -3.2264    1.8245 H   0  0  0  0  0  0  0  0  0  0  0  0
    2.1261   -1.7252    2.3985 H   0  0  0  0  0  0  0  0  0  0  0  0
    2.9555    0.3641    1.6295 H   0  0  0  0  0  0  0  0  0  0  0  0
    4.0024   -3.2423   -0.4775 H   0  0  0  0  0  0  0  0  0  0  0  0
    1.1708   -3.4653    0.2305 H   0  0  0  0  0  0  0  0  0  0  0  0
    5.9350    0.3911   -1.5158 H   0  0  0  0  0  0  0  0  0  0  0  0
    5.6228   -1.9745   -1.8426 H   0  0  0  0  0  0  0  0  0  0  0  0
    4.0426    2.3403    1.0293 H   0  0  0  0  0  0  0  0  0  0  0  0
   -0.7515   -3.2341   -0.4856 H   0  0  0  0  0  0  0  0  0  0  0  0
   -5.3973   -1.7178   -1.7189 H   0  0  0  0  0  0  0  0  0  0  0  0
   -5.9138    0.5712   -2.0238 H   0  0  0  0  0  0  0  0  0  0  0  0
   -3.9427    0.9806    1.8167 H   0  0  0  0  0  0  0  0  0  0  0  0
   -7.2610    2.5490   -1.4247 H   0  0  0  0  0  0  0  0  0  0  0  0
   -5.3866    2.9566    2.2183 H   0  0  0  0  0  0  0  0  0  0  0  0
    4.3552    4.5918   -0.0242 H   0  0  0  0  0  0  0  0  0  0  0  0
    6.0778    4.8691   -0.3786 H   0  0  0  0  0  0  0  0  0  0  0  0
    5.5939    4.2439    1.2155 H   0  0  0  0  0  0  0  0  0  0  0  0
  1 19  1  0  0  0  0
  1 20  1  0  0  0  0
  2 16  2  0  0  0  0
  3 21  2  0  0  0  0
  4 10  1  0  0  0  0
  4 16  1  0  0  0  0
  4 31  1  0  0  0  0
  5 12  1  0  0  0  0
  5 21  1  0  0  0  0
  5 34  1  0  0  0  0
  6 16  1  0  0  0  0
  6 19  1  0  0  0  0
  6 35  1  0  0  0  0
  7 17  1  0  0  0  0
  7 19  2  0  0  0  0
  8 24  2  0  0  0  0
  8 25  1  0  0  0  0
  9 10  1  0  0  0  0
  9 11  2  0  0  0  0
  9 13  1  0  0  0  0
 10 27  1  0  0  0  0
 10 28  1  0  0  0  0
 11 12  1  0  0  0  0
 11 29  1  0  0  0  0
 12 14  2  0  0  0  0
 13 15  2  0  0  0  0
 13 30  1  0  0  0  0
 14 15  1  0  0  0  0
 14 32  1  0  0  0  0
 15 33  1  0  0  0  0
 17 18  1  0  0  0  0
 17 20  2  0  0  0  0
 18 22  2  0  0  0  0
 18 23  1  0  0  0  0
 20 36  1  0  0  0  0
 21 26  1  0  0  0  0
 22 24  1  0  0  0  0
 22 37  1  0  0  0  0
 23 25  2  0  0  0  0
 23 38  1  0  0  0  0
 24 39  1  0  0  0  0
 25 40  1  0  0  0  0
 26 41  1  0  0  0  0
 26 42  1  0  0  0  0
 26 43  1  0  0  0  0
M  END
> <PUBCHEM_COMPOUND_CID>
87408321

> <PUBCHEM_CONFORMER_RMSD>
1

> <PUBCHEM_CONFORMER_DIVERSEORDER>
2
233
319
231
315
114
466
208
55
418
33
4
39
92
97
433
198
493
221
179
23
152
416
123
135
203
63
130
321
312
451
265
407
56
406
401
84
38
206
311
176
102
85
194
489
173
17
350
89
169
257
390
81
76
45
307
454
142
163
242
143
36
73
246
11
425
37
101
318
329
32
316
236
155
229
6
448
95
387
9
349
98
109
478
83
289
261
322
189
281
74
100
363
161
27
49
428
58
188
180
380
106
129
413
171
14
386
40
30
273
19
159
455
7
199
223
255
334
10
62
330
439
13
127
472
411
362
21
48
382
3
287
154
53
160
197
272
244
75
220
61
43
158
69
385
292
88
24
16
397
245
280
211
91
1
410
18
250
25
392
443

> <PUBCHEM_MMFF94_PARTIAL_CHARGES>
38
1 -0.08
10 0.44
11 -0.15
12 0.12
13 -0.15
14 -0.15
15 -0.15
16 0.69
17 0.17
18 0.05
19 0.44
2 -0.57
20 -0.11
21 0.57
22 -0.15
23 -0.15
24 0.16
25 0.16
26 0.06
29 0.15
3 -0.57
30 0.15
31 0.37
32 0.15
33 0.15
34 0.37
35 0.37
36 0.15
37 0.15
38 0.15
39 0.15
4 -0.73
40 0.15
5 -0.55
6 -0.49
7 -0.57
8 -0.62
9 -0.14

> <PUBCHEM_EFFECTIVE_ROTOR_COUNT>
8

> <PUBCHEM_PHARMACOPHORE_FEATURES>
9
1 2 acceptor
1 3 acceptor
1 4 donor
1 5 donor
1 6 donor
1 8 acceptor
5 1 7 17 19 20 rings
6 8 18 22 23 24 25 rings
6 9 11 12 13 14 15 rings

> <PUBCHEM_HEAVY_ATOM_COUNT>
26

> <PUBCHEM_ATOM_DEF_STEREO_COUNT>
0

> <PUBCHEM_ATOM_UDEF_STEREO_COUNT>
0

> <PUBCHEM_BOND_DEF_STEREO_COUNT>
0

> <PUBCHEM_BOND_UDEF_STEREO_COUNT>
0

> <PUBCHEM_ISOTOPIC_ATOM_COUNT>
0

> <PUBCHEM_COMPONENT_COUNT>
1

> <PUBCHEM_CACTVS_TAUTO_COUNT>
15

> <PUBCHEM_CONFORMER_ID>
0535BEC100000002

> <PUBCHEM_MMFF94_ENERGY>
61.7795

> <PUBCHEM_FEATURE_SELFOVERLAP>
45.724

> <PUBCHEM_SHAPE_FINGERPRINT>
10670039 82 17916302728168395571
11070050 100 16443064963481081994
12616971 3 18115294584136057954
13627167 48 18337963289716005508
13690498 29 17630318869174407559
13885169 86 18411141303735634601
14251740 57 9655581807797717124
14251764 75 18410014350928756200
14347332 77 9295280652127466155
14429114 114 18338512044654813624
14790565 3 18339079281459654907
14840074 17 18188494567098048581
14848178 5 10519979357604932747
15001296 14 18408881819745727273
15064981 194 17989483010327227177
15183329 4 17988361464483306267
15188451 53 8934992655735493047
15530120 55 17845928658157640068
15840311 113 18335143038548986189
1768 23 17916318143159767601
17899979 129 18411145732047363958
19053607 189 18196645410220579808
20058555 10 18410011061284974941
20398071 356 10303814302253365621
20691028 202 18340764837259935673
21774942 28 18342737455931037176
22061861 79 14045444632228590523
22122407 14 18262808350131899473
23559900 14 17631450077355093414
23569914 2 16809498121375758653
27425 322 18409168788007234879
2748736 6 18262790895522328176
3472631 163 18341330011652826247
393628 194 17971194978829546748
4258327 124 18411696557661471485
50009960 94 10735329636819031372
5104073 3 17676481765739313970
54583773 228 18409721873791459589
5951187 136 18342185427572762190
59682541 52 15625368005916829375
6034566 193 18343589525734066779
6058803 2 18265589092148671547
633830 44 18408597067830711002
6898599 12 18271238417699484791
7970288 3 9799691497624681881

> <PUBCHEM_SHAPE_MULTIPOLES>
502.27
19.61
4.52
1.32
3.8
3.11
-0.06
18.88
4.38
-2.98
0.14
0.25
-0.26
-2.45

> <PUBCHEM_SHAPE_SELFOVERLAP>
1065.812

> <PUBCHEM_SHAPE_VOLUME>
281.3

> <PUBCHEM_COORDINATE_TYPE>
2
5
10

$$$$
87405826
  -OEChem-05102415093D

 47 49  0     0  0  0  0  0  0999 V2000
   -3.9969    2.6778    0.9930 S   0  0  0  0  0  0  0  0  0  0  0  0
    4.4154   -1.1441    0.2487 O   0  0  0  0  0  0  0  0  0  0  0  0
    7.4898   -3.0896    0.2834 O   0  0  0  0  0  0  0  0  0  0  0  0
   -0.3927    0.7233   -1.2683 O   0  0  0  0  0  0  0  0  0  0  0  0
    0.5151    2.8171   -0.8971 N   0  0  0  0  0  0  0  0  0  0  0  0
   -1.6108    2.3829   -0.1403 N   0  0  0  0  0  0  0  0  0  0  0  0
   -3.1836    0.5049   -0.1469 N   0  0  0  0  0  0  0  0  0  0  0  0
   -6.3828   -3.4540   -0.2094 N   0  0  0  0  0  0  0  0  0  0  0  0
    2.7994    2.0310   -0.5830 C   0  0  0  0  0  0  0  0  0  0  0  0
    1.7834    2.5668   -1.5339 C   0  0  0  0  0  0  0  0  0  0  0  0
    3.1371    0.6780   -0.6125 C   0  0  0  0  0  0  0  0  0  0  0  0
    4.0872    0.1765    0.2773 C   0  0  0  0  0  0  0  0  0  0  0  0
    3.4118    2.8828    0.3366 C   0  0  0  0  0  0  0  0  0  0  0  0
    4.6996    1.0282    1.1968 C   0  0  0  0  0  0  0  0  0  0  0  0
    4.3616    2.3814    1.2266 C   0  0  0  0  0  0  0  0  0  0  0  0
    5.7432   -1.4914    0.6389 C   0  0  0  0  0  0  0  0  0  0  0  0
   -0.5014    1.8576   -0.8087 C   0  0  0  0  0  0  0  0  0  0  0  0
   -4.4634    0.2779    0.3205 C   0  0  0  0  0  0  0  0  0  0  0  0
    6.1587   -2.7547   -0.0900 C   0  0  0  0  0  0  0  0  0  0  0  0
   -5.1143   -0.9877    0.1408 C   0  0  0  0  0  0  0  0  0  0  0  0
   -2.8347    1.7368    0.1512 C   0  0  0  0  0  0  0  0  0  0  0  0
   -5.0664    1.3374    0.9651 C   0  0  0  0  0  0  0  0  0  0  0  0
   -6.0474   -1.4311    1.0715 C   0  0  0  0  0  0  0  0  0  0  0  0
   -4.8147   -1.7760   -0.9649 C   0  0  0  0  0  0  0  0  0  0  0  0
   -6.6481   -2.6603    0.8525 C   0  0  0  0  0  0  0  0  0  0  0  0
   -5.4707   -2.9898   -1.0929 C   0  0  0  0  0  0  0  0  0  0  0  0
    7.9253   -4.2818   -0.3550 C   0  0  0  0  0  0  0  0  0  0  0  0
    2.1311    3.5153   -1.9593 H   0  0  0  0  0  0  0  0  0  0  0  0
    1.6327    1.8815   -2.3763 H   0  0  0  0  0  0  0  0  0  0  0  0
    2.6636    0.0068   -1.3248 H   0  0  0  0  0  0  0  0  0  0  0  0
    3.1558    3.9386    0.3704 H   0  0  0  0  0  0  0  0  0  0  0  0
    0.3613    3.7274   -0.4744 H   0  0  0  0  0  0  0  0  0  0  0  0
    5.4229    0.6737    1.9250 H   0  0  0  0  0  0  0  0  0  0  0  0
    4.8333    3.0436    1.9468 H   0  0  0  0  0  0  0  0  0  0  0  0
    6.4679   -0.7058    0.3858 H   0  0  0  0  0  0  0  0  0  0  0  0
    5.7783   -1.6559    1.7224 H   0  0  0  0  0  0  0  0  0  0  0  0
    6.1000   -2.5983   -1.1740 H   0  0  0  0  0  0  0  0  0  0  0  0
    5.4758   -3.5741    0.1653 H   0  0  0  0  0  0  0  0  0  0  0  0
   -1.5567    3.3439    0.1859 H   0  0  0  0  0  0  0  0  0  0  0  0
   -6.0514    1.4165    1.4039 H   0  0  0  0  0  0  0  0  0  0  0  0
   -6.3101   -0.8688    1.9613 H   0  0  0  0  0  0  0  0  0  0  0  0
   -4.0970   -1.4691   -1.7189 H   0  0  0  0  0  0  0  0  0  0  0  0
   -7.3797   -3.0535    1.5508 H   0  0  0  0  0  0  0  0  0  0  0  0
   -5.2736   -3.6413   -1.9378 H   0  0  0  0  0  0  0  0  0  0  0  0
    8.9502   -4.4889   -0.0356 H   0  0  0  0  0  0  0  0  0  0  0  0
    7.2921   -5.1258   -0.0647 H   0  0  0  0  0  0  0  0  0  0  0  0
    7.9163   -4.1601   -1.4425 H   0  0  0  0  0  0  0  0  0  0  0  0
  1 21  1  0  0  0  0
  1 22  1  0  0  0  0
  2 12  1  0  0  0  0
  2 16  1  0  0  0  0
  3 19  1  0  0  0  0
  3 27  1  0  0  0  0
  4 17  2  0  0  0  0
  5 10  1  0  0  0  0
  5 17  1  0  0  0  0
  5 32  1  0  0  0  0
  6 17  1  0  0  0  0
  6 21  1  0  0  0  0
  6 39  1  0  0  0  0
  7 18  1  0  0  0  0
  7 21  2  0  0  0  0
  8 25  2  0  0  0  0
  8 26  1  0  0  0  0
  9 10  1  0  0  0  0
  9 11  2  0  0  0  0
  9 13  1  0  0  0  0
 10 28  1  0  0  0  0
 10 29  1  0  0  0  0
 11 12  1  0  0  0  0
 11 30  1  0  0  0  0
 12 14  2  0  0  0  0
 13 15  2  0  0  0  0
 13 31  1  0  0  0  0
 14 15  1  0  0  0  0
 14 33  1  0  0  0  0
 15 34  1  0  0  0  0
 16 19  1  0  0  0  0
 16 35  1  0  0  0  0
 16 36  1  0  0  0  0
 18 20  1  0  0  0  0
 18 22  2  0  0  0  0
 19 37  1  0  0  0  0
 19 38  1  0  0  0  0
 20 23  2  0  0  0  0
 20 24  1  0  0  0  0
 22 40  1  0  0  0  0
 23 25  1  0  0  0  0
 23 41  1  0  0  0  0
 24 26  2  0  0  0  0
 24 42  1  0  0  0  0
 25 43  1  0  0  0  0
 26 44  1  0  0  0  0
 27 45  1  0  0  0  0
 27 46  1  0  0  0  0
 27 47  1  0  0  0  0
M  END
> <PUBCHEM_COMPOUND_CID>
87405826

> <PUBCHEM_CONFORMER_RMSD>
1

> <PUBCHEM_CONFORMER_DIVERSEORDER>
3
73
20
76
21
95
91
94
92
31
15
103
61
96
55
79
51
22
57
53
90
84
99
62
72
98
36
88
34
46
32
54
70
41
86
25
77
89
82
93
2
67
5
68
69
35
42
50
104
13
58
66
24
87
29
1
81
43
28
44
83
64
33
49
71
59
8
27
18
75
80
52
101
9
39
7
60
65
26
14
10
48
85
4
56
47
102
100
74
16
12
97
63
19
17
11
38
37
23
40
30
78
45
6

> <PUBCHEM_MMFF94_PARTIAL_CHARGES>
38
1 -0.08
10 0.44
11 -0.15
12 0.08
13 -0.15
14 -0.15
15 -0.15
16 0.28
17 0.69
18 0.17
19 0.28
2 -0.36
20 0.05
21 0.44
22 -0.11
23 -0.15
24 -0.15
25 0.16
26 0.16
27 0.28
3 -0.56
30 0.15
31 0.15
32 0.37
33 0.15
34 0.15
39 0.37
4 -0.57
40 0.15
41 0.15
42 0.15
43 0.15
44 0.15
5 -0.73
6 -0.49
7 -0.57
8 -0.62
9 -0.14

> <PUBCHEM_EFFECTIVE_ROTOR_COUNT>
10

> <PUBCHEM_PHARMACOPHORE_FEATURES>
9
1 2 acceptor
1 3 acceptor
1 4 acceptor
1 5 donor
1 6 donor
1 8 acceptor
5 1 7 18 21 22 rings
6 8 20 23 24 25 26 rings
6 9 11 12 13 14 15 rings

> <PUBCHEM_HEAVY_ATOM_COUNT>
27

> <PUBCHEM_ATOM_DEF_STEREO_COUNT>
0

> <PUBCHEM_ATOM_UDEF_STEREO_COUNT>
0

> <PUBCHEM_BOND_DEF_STEREO_COUNT>
0

> <PUBCHEM_BOND_UDEF_STEREO_COUNT>
0

> <PUBCHEM_ISOTOPIC_ATOM_COUNT>
0

> <PUBCHEM_COMPONENT_COUNT>
1

> <PUBCHEM_CACTVS_TAUTO_COUNT>
5

> <PUBCHEM_CONFORMER_ID>
0535B50200000003

> <PUBCHEM_MMFF94_ENERGY>
68.5825

> <PUBCHEM_FEATURE_SELFOVERLAP>
45.724

> <PUBCHEM_SHAPE_FINGERPRINT>
10049733 73 17988915644330606774
10319926 262 17917160402851609117
10571361 74 18126841823171625479
10622 236 18335980952208431357
11059845 2 17913220762337232601
11399510 152 17917138489991762832
11497681 19 18334861602606821868
117089 54 18408891715577516266
11756154 67 18336830797540687574
12107183 9 18196098746223884705
12174731 88 18413386553740479103
12623949 98 18342181068439419508
13533116 47 18263927816120034593
1361 4 18339924942897763362
1361 87 17096102375310584194
13782708 43 18411416185932089136
13885169 86 9655312453350656079
14211702 104 18335144253919112243
14251740 57 18335699464336360208
14347332 77 18264207079869121757
14420673 8 18266462009869661120
14848178 5 18188767374725487861
14950920 106 18060417988847875504
15188451 53 18337664338902332969
15289351 153 9655282706760559566
15361156 5 17895489037147510173
15728490 83 18119254102429825283
16728300 4 18270398416907518767
16990366 60 18263637386985857914
17492 89 18409729573238849948
17857418 61 18266178521181172541
20028762 73 18408882957954434058
208703 8 18335697260775817051
21585481 151 18270685243265857770
23729417 116 18116999884892366404
3472631 163 8934738686045909481
3504750 166 18341895182673823985
3610482 184 14780094274225020173
373842 8 18265336281915192699
3862424 121 17387155193526833291
474113 269 18342448297342308631
4756326 101 12974185025344850526
5104073 3 18059862774457627817
5718773 13 18408602544076926626
6058803 2 18263949733465643429
636775 72 9510585902434973598
8863177 126 18410008798311424360
9555976 147 17846510201230395617

> <PUBCHEM_SHAPE_MULTIPOLES>
521.96
22.35
5.37
1.21
9.92
3.83
0.08
30.14
-4.65
4.35
0.45
-0.29
-0.41
-0.65

> <PUBCHEM_SHAPE_SELFOVERLAP>
1095.578

> <PUBCHEM_SHAPE_VOLUME>
296.4

> <PUBCHEM_COORDINATE_TYPE>
2
5
10

$$$$
87405222
  -OEChem-05102415093D

 43 45  0     0  0  0  0  0  0999 V2000
   -2.6071   -3.0122   -1.0874 S   0  0  0  0  0  0  0  0  0  0  0  0
    4.8231    2.4550   -0.1766 O   0  0  0  0  0  0  0  0  0  0  0  0
    0.5063   -0.4135    1.2528 O   0  0  0  0  0  0  0  0  0  0  0  0
    1.8312   -2.2614    0.8330 N   0  0  0  0  0  0  0  0  0  0  0  0
   -0.3369   -2.2586    0.0716 N   0  0  0  0  0  0  0  0  0  0  0  0
   -2.2664   -0.7501    0.1162 N   0  0  0  0  0  0  0  0  0  0  0  0
   -6.2204    2.4528    0.2595 N   0  0  0  0  0  0  0  0  0  0  0  0
    3.9023   -1.0087    0.5576 C   0  0  0  0  0  0  0  0  0  0  0  0
    3.0182   -1.7702    1.4860 C   0  0  0  0  0  0  0  0  0  0  0  0
    3.9507    0.3837    0.6258 C   0  0  0  0  0  0  0  0  0  0  0  0
    4.7772    1.0964   -0.2429 C   0  0  0  0  0  0  0  0  0  0  0  0
    4.6805   -1.6885   -0.3796 C   0  0  0  0  0  0  0  0  0  0  0  0
    5.5554    0.4166   -1.1800 C   0  0  0  0  0  0  0  0  0  0  0  0
    5.5068   -0.9758   -1.2484 C   0  0  0  0  0  0  0  0  0  0  0  0
    0.6372   -1.5325    0.7625 C   0  0  0  0  0  0  0  0  0  0  0  0
   -3.5646   -0.7815   -0.3548 C   0  0  0  0  0  0  0  0  0  0  0  0
   -4.4652    0.3153   -0.1464 C   0  0  0  0  0  0  0  0  0  0  0  0
   -1.6682   -1.8736   -0.2119 C   0  0  0  0  0  0  0  0  0  0  0  0
    3.6398    3.1241    0.2571 C   0  0  0  0  0  0  0  0  0  0  0  0
   -3.9323   -1.9252   -1.0321 C   0  0  0  0  0  0  0  0  0  0  0  0
   -5.8323    0.0852   -0.0385 C   0  0  0  0  0  0  0  0  0  0  0  0
   -3.9747    1.6130   -0.0516 C   0  0  0  0  0  0  0  0  0  0  0  0
    3.5848    4.4944   -0.3839 C   0  0  0  0  0  0  0  0  0  0  0  0
   -6.6600    1.1780    0.1622 C   0  0  0  0  0  0  0  0  0  0  0  0
   -4.8856    2.6375    0.1498 C   0  0  0  0  0  0  0  0  0  0  0  0
    3.5552   -2.6373    1.8878 H   0  0  0  0  0  0  0  0  0  0  0  0
    2.7263   -1.1566    2.3463 H   0  0  0  0  0  0  0  0  0  0  0  0
    3.3546    0.8861    1.3825 H   0  0  0  0  0  0  0  0  0  0  0  0
    4.6513   -2.7731   -0.4424 H   0  0  0  0  0  0  0  0  0  0  0  0
    1.8713   -3.1718    0.3852 H   0  0  0  0  0  0  0  0  0  0  0  0
    6.2008    0.9663   -1.8597 H   0  0  0  0  0  0  0  0  0  0  0  0
    6.1125   -1.5050   -1.9783 H   0  0  0  0  0  0  0  0  0  0  0  0
   -0.0832   -3.1778   -0.2796 H   0  0  0  0  0  0  0  0  0  0  0  0
    2.7323    2.5849   -0.0428 H   0  0  0  0  0  0  0  0  0  0  0  0
    3.6630    3.2263    1.3477 H   0  0  0  0  0  0  0  0  0  0  0  0
   -4.8713   -2.1857   -1.5007 H   0  0  0  0  0  0  0  0  0  0  0  0
   -6.2722   -0.9053   -0.0877 H   0  0  0  0  0  0  0  0  0  0  0  0
   -2.9168    1.8409   -0.1341 H   0  0  0  0  0  0  0  0  0  0  0  0
    3.5749    4.4095   -1.4757 H   0  0  0  0  0  0  0  0  0  0  0  0
    2.6931    5.0410   -0.0642 H   0  0  0  0  0  0  0  0  0  0  0  0
    4.4714    5.0798   -0.1188 H   0  0  0  0  0  0  0  0  0  0  0  0
   -7.7336    1.0519    0.2571 H   0  0  0  0  0  0  0  0  0  0  0  0
   -4.5543    3.6676    0.2297 H   0  0  0  0  0  0  0  0  0  0  0  0
  1 18  1  0  0  0  0
  1 20  1  0  0  0  0
  2 11  1  0  0  0  0
  2 19  1  0  0  0  0
  3 15  2  0  0  0  0
  4  9  1  0  0  0  0
  4 15  1  0  0  0  0
  4 30  1  0  0  0  0
  5 15  1  0  0  0  0
  5 18  1  0  0  0  0
  5 33  1  0  0  0  0
  6 16  1  0  0  0  0
  6 18  2  0  0  0  0
  7 24  2  0  0  0  0
  7 25  1  0  0  0  0
  8  9  1  0  0  0  0
  8 10  2  0  0  0  0
  8 12  1  0  0  0  0
  9 26  1  0  0  0  0
  9 27  1  0  0  0  0
 10 11  1  0  0  0  0
 10 28  1  0  0  0  0
 11 13  2  0  0  0  0
 12 14  2  0  0  0  0
 12 29  1  0  0  0  0
 13 14  1  0  0  0  0
 13 31  1  0  0  0  0
 14 32  1  0  0  0  0
 16 17  1  0  0  0  0
 16 20  2  0  0  0  0
 17 21  2  0  0  0  0
 17 22  1  0  0  0  0
 19 23  1  0  0  0  0
 19 34  1  0  0  0  0
 19 35  1  0  0  0  0
 20 36  1  0  0  0  0
 21 24  1  0  0  0  0
 21 37  1  0  0  0  0
 22 25  2  0  0  0  0
 22 38  1  0  0  0  0
 23 39  1  0  0  0  0
 23 40  1  0  0  0  0
 23 41  1  0  0  0  0
 24 42  1  0  0  0  0
 25 43  1  0  0  0  0
M  END
> <PUBCHEM_COMPOUND_CID>
87405222

> <PUBCHEM_CONFORMER_RMSD>
0.8

> <PUBCHEM_CONFORMER_DIVERSEORDER>
1
168
211
159
97
121
218
307
157
259
197
308
241
172
282
276
87
151
167
221
250
228
286
287
110
2
244
111
277
200
274
93
199
214
37
176
158
120
296
222
224
178
188
187
21
148
262
186
301
103
298
210
254
164
248
45
17
44
84
108
52
258
126
306
208
299
146
240
239
134
205
246
40
101
96
107
220
267
114
305
14
235
91
99
257
138
289
32
94
92
122
140
181
233
284
38
95
130
78
117
145
245
227
102
71
54
182
272
81
29
142
279
275
191
147
230
238
249
31
62
47
290
281
3
177
30
231
264
268
153
141
219
162
180
86
89
26
119
113
203
27
64
143
39
255
261
175
251
57
247
139
202
59
278
83
265
302
184
283
63
127
123
216
98
20
204
106
206
196
133
36
58
260
50
12
174
229
269
209
165
72
234
125
105
232
160
15
225
303
70
154
201
49
252
217
273
198
56
43
183
115
132
33
137
213
293
51
80
270
297
19
215
173
212
124
190
100
161
75
65
194
256
34
271
294
35
288
166
155
109
118
149
263
90
242
7
61
82
285
144
150
85
22
171
131
304
195
295
42
55
13
226
169
192
223
128
4
236
163
16
253
185
53
66
129
243
280
18
156
112
291
5
179
189
23
74
237
300
170
69
10
46
28
193
41
88
67
11
76
79
266
136
9
60
207
77
6
73
152
24
8
68
116
25
292
48
104
135

> <PUBCHEM_MMFF94_PARTIAL_CHARGES>
35
1 -0.08
10 -0.15
11 0.08
12 -0.15
13 -0.15
14 -0.15
15 0.69
16 0.17
17 0.05
18 0.44
19 0.28
2 -0.36
20 -0.11
21 -0.15
22 -0.15
24 0.16
25 0.16
28 0.15
29 0.15
3 -0.57
30 0.37
31 0.15
32 0.15
33 0.37
36 0.15
37 0.15
38 0.15
4 -0.73
42 0.15
43 0.15
5 -0.49
6 -0.57
7 -0.62
8 -0.14
9 0.44

> <PUBCHEM_EFFECTIVE_ROTOR_COUNT>
8

> <PUBCHEM_PHARMACOPHORE_FEATURES>
8
1 2 acceptor
1 3 acceptor
1 4 donor
1 5 donor
1 7 acceptor
5 1 6 16 18 20 rings
6 7 17 21 22 24 25 rings
6 8 10 11 12 13 14 rings

> <PUBCHEM_HEAVY_ATOM_COUNT>
25

> <PUBCHEM_ATOM_DEF_STEREO_COUNT>
0

> <PUBCHEM_ATOM_UDEF_STEREO_COUNT>
0

> <PUBCHEM_BOND_DEF_STEREO_COUNT>
0

> <PUBCHEM_BOND_UDEF_STEREO_COUNT>
0

> <PUBCHEM_ISOTOPIC_ATOM_COUNT>
0

> <PUBCHEM_COMPONENT_COUNT>
1

> <PUBCHEM_CACTVS_TAUTO_COUNT>
5

> <PUBCHEM_CONFORMER_ID>
0535B2A600000001

> <PUBCHEM_MMFF94_ENERGY>
60.0461

> <PUBCHEM_FEATURE_SELFOVERLAP>
40.648

> <PUBCHEM_SHAPE_FINGERPRINT>
10638233 991 18409725175655932455
10670039 82 17844814689337570808
11070050 100 16443060586930447896
11101153 10 18338793537681156087
11273773 38 18268427937014091929
11991303 11 17489299815869504863
12342043 65 14419811728025889067
12390115 104 17988363664324291539
12596602 18 17531248306214112211
12616971 3 18115010931832422282
13885169 86 18411705378996945793
14187579 7 18196087961275264381
14251757 5 18202282515703257411
14251764 38 18266461099552989388
14429114 114 18123183769107318880
14528608 73 18408601474292596170
1454969 45 18412538796495571303
14790565 3 18410573964177898107
14840074 17 17968100789683183141
14848178 5 10159694685791855899
15001296 14 18334852861515385609
15142526 21 18113615711700814923
15183329 4 17704078356381335394
15188451 53 9511458896806634886
15575132 122 18189050902865377957
17844677 252 18339365265804386338
17959699 21 18411699915497910282
18335252 114 18337103458943508238
21315764 119 17774728567262488294
22061861 79 15554441890442066887
22122407 14 18335147462032868513
23559900 14 17989485230118586914
245318 6 17968671534696668493
312425 83 18129669741571711982
3472631 163 18413107260258709447
38570 142 18188219710165216090
393628 179 17478879945963297880
5047190 92 17975699703390045273
508180 173 18339935878728251792
5104073 3 17749100127976902186
5312510 48 18408888455654737752
53794403 172 18189342423633892052
5951187 136 18341342145230512028
59682541 52 15769209428308217079
633830 44 18337101354404706358
7808743 9 18413101754469422659

> <PUBCHEM_SHAPE_MULTIPOLES>
486.68
17.6
4.35
1.08
7.9
3.87
-0.02
10.04
2.72
-1.63
0.45
-0.92
-0.54
-1.57

> <PUBCHEM_SHAPE_SELFOVERLAP>
1028.668

> <PUBCHEM_SHAPE_VOLUME>
274.6

> <PUBCHEM_COORDINATE_TYPE>
2
5
10

$$$$
87405796
  -OEChem-05102415093D

 46 48  0     0  0  0  0  0  0999 V2000
   -3.1179    2.6657    1.6098 S   0  0  0  0  0  0  0  0  0  0  0  0
    4.7418   -1.7063   -0.6346 O   0  0  0  0  0  0  0  0  0  0  0  0
    0.0931    0.9090   -1.3102 O   0  0  0  0  0  0  0  0  0  0  0  0
    1.2549    2.7719   -0.5851 N   0  0  0  0  0  0  0  0  0  0  0  0
   -0.8558    2.3933    0.2413 N   0  0  0  0  0  0  0  0  0  0  0  0
   -2.6296    0.7254   -0.0269 N   0  0  0  0  0  0  0  0  0  0  0  0
   -6.2568   -2.7914   -0.6492 N   0  0  0  0  0  0  0  0  0  0  0  0
    3.4498    1.7164   -0.6388 C   0  0  0  0  0  0  0  0  0  0  0  0
    2.4445    2.5438   -1.3657 C   0  0  0  0  0  0  0  0  0  0  0  0
    4.5686   -0.3982   -0.3009 C   0  0  0  0  0  0  0  0  0  0  0  0
    3.6286    0.3761   -0.9811 C   0  0  0  0  0  0  0  0  0  0  0  0
    5.1549   -2.5922    0.4050 C   0  0  0  0  0  0  0  0  0  0  0  0
    4.2109    2.2826    0.3841 C   0  0  0  0  0  0  0  0  0  0  0  0
    4.6199   -3.9843    0.1061 C   0  0  0  0  0  0  0  0  0  0  0  0
    5.3297    0.1679    0.7219 C   0  0  0  0  0  0  0  0  0  0  0  0
    5.1507    1.5083    1.0645 C   0  0  0  0  0  0  0  0  0  0  0  0
    5.0090   -4.9819    1.1822 C   0  0  0  0  0  0  0  0  0  0  0  0
    0.1431    1.9206   -0.6146 C   0  0  0  0  0  0  0  0  0  0  0  0
   -3.8956    0.5282    0.4892 C   0  0  0  0  0  0  0  0  0  0  0  0
   -4.6963   -0.5976    0.1031 C   0  0  0  0  0  0  0  0  0  0  0  0
   -2.1249    1.8221    0.4931 C   0  0  0  0  0  0  0  0  0  0  0  0
   -4.3328    1.4751    1.3914 C   0  0  0  0  0  0  0  0  0  0  0  0
   -6.0831   -0.4973    0.0936 C   0  0  0  0  0  0  0  0  0  0  0  0
   -4.0888   -1.7935   -0.2632 C   0  0  0  0  0  0  0  0  0  0  0  0
   -6.8114   -1.6128   -0.2870 C   0  0  0  0  0  0  0  0  0  0  0  0
   -4.9063   -2.8511   -0.6280 C   0  0  0  0  0  0  0  0  0  0  0  0
    2.8710    3.5236   -1.6099 H   0  0  0  0  0  0  0  0  0  0  0  0
    2.1649    2.0772   -2.3176 H   0  0  0  0  0  0  0  0  0  0  0  0
    3.0382   -0.0737   -1.7756 H   0  0  0  0  0  0  0  0  0  0  0  0
    4.7582   -2.2811    1.3802 H   0  0  0  0  0  0  0  0  0  0  0  0
    6.2502   -2.6095    0.4451 H   0  0  0  0  0  0  0  0  0  0  0  0
    4.0815    3.3261    0.6590 H   0  0  0  0  0  0  0  0  0  0  0  0
    3.5280   -3.9468    0.0114 H   0  0  0  0  0  0  0  0  0  0  0  0
    4.9951   -4.3212   -0.8677 H   0  0  0  0  0  0  0  0  0  0  0  0
    6.0909   -0.3915    1.2576 H   0  0  0  0  0  0  0  0  0  0  0  0
    1.2323    3.5785    0.0313 H   0  0  0  0  0  0  0  0  0  0  0  0
    5.7475    1.9512    1.8566 H   0  0  0  0  0  0  0  0  0  0  0  0
    4.6070   -4.6859    2.1564 H   0  0  0  0  0  0  0  0  0  0  0  0
    4.6150   -5.9738    0.9400 H   0  0  0  0  0  0  0  0  0  0  0  0
    6.0974   -5.0608    1.2688 H   0  0  0  0  0  0  0  0  0  0  0  0
   -0.6724    3.2498    0.7566 H   0  0  0  0  0  0  0  0  0  0  0  0
   -5.2642    1.5399    1.9368 H   0  0  0  0  0  0  0  0  0  0  0  0
   -6.6132    0.4130    0.3529 H   0  0  0  0  0  0  0  0  0  0  0  0
   -3.0109   -1.9195   -0.2666 H   0  0  0  0  0  0  0  0  0  0  0  0
   -7.8958   -1.5854   -0.3153 H   0  0  0  0  0  0  0  0  0  0  0  0
   -4.4820   -3.8057   -0.9211 H   0  0  0  0  0  0  0  0  0  0  0  0
  1 21  1  0  0  0  0
  1 22  1  0  0  0  0
  2 10  1  0  0  0  0
  2 12  1  0  0  0  0
  3 18  2  0  0  0  0
  4  9  1  0  0  0  0
  4 18  1  0  0  0  0
  4 36  1  0  0  0  0
  5 18  1  0  0  0  0
  5 21  1  0  0  0  0
  5 41  1  0  0  0  0
  6 19  1  0  0  0  0
  6 21  2  0  0  0  0
  7 25  2  0  0  0  0
  7 26  1  0  0  0  0
  8  9  1  0  0  0  0
  8 11  2  0  0  0  0
  8 13  1  0  0  0  0
  9 27  1  0  0  0  0
  9 28  1  0  0  0  0
 10 11  1  0  0  0  0
 10 15  2  0  0  0  0
 11 29  1  0  0  0  0
 12 14  1  0  0  0  0
 12 30  1  0  0  0  0
 12 31  1  0  0  0  0
 13 16  2  0  0  0  0
 13 32  1  0  0  0  0
 14 17  1  0  0  0  0
 14 33  1  0  0  0  0
 14 34  1  0  0  0  0
 15 16  1  0  0  0  0
 15 35  1  0  0  0  0
 16 37  1  0  0  0  0
 17 38  1  0  0  0  0
 17 39  1  0  0  0  0
 17 40  1  0  0  0  0
 19 20  1  0  0  0  0
 19 22  2  0  0  0  0
 20 23  2  0  0  0  0
 20 24  1  0  0  0  0
 22 42  1  0  0  0  0
 23 25  1  0  0  0  0
 23 43  1  0  0  0  0
 24 26  2  0  0  0  0
 24 44  1  0  0  0  0
 25 45  1  0  0  0  0
 26 46  1  0  0  0  0
M  END
> <PUBCHEM_COMPOUND_CID>
87405796

> <PUBCHEM_CONFORMER_RMSD>
1

> <PUBCHEM_CONFORMER_DIVERSEORDER>
1
21
56
46
10
90
128
75
63
100
127
38
123
74
132
115
43
98
67
58
45
18
113
117
125
86
64
44
129
72
79
121
108
92
65
87
104
95
55
36
33
102
32
110
124
54
82
48
89
71
130
23
76
22
84
49
70
122
31
119
80
24
2
61
93
133
88
107
17
94
118
78
126
30
35
116
41
111
83
109
26
77
69
7
120
131
50
101
16
39
73
28
5
34
37
114
25
51
97
91
105
103
3
106
13
40
29
96
15
12
57
112
85
9
53
11
27
59
66
47
60
6
62
42
20
68
4
52
19
14
99
81
8

> <PUBCHEM_MMFF94_PARTIAL_CHARGES>
35
1 -0.08
10 0.08
11 -0.15
12 0.28
13 -0.15
15 -0.15
16 -0.15
18 0.69
19 0.17
2 -0.36
20 0.05
21 0.44
22 -0.11
23 -0.15
24 -0.15
25 0.16
26 0.16
29 0.15
3 -0.57
32 0.15
35 0.15
36 0.37
37 0.15
4 -0.73
41 0.37
42 0.15
43 0.15
44 0.15
45 0.15
46 0.15
5 -0.49
6 -0.57
7 -0.62
8 -0.14
9 0.44

> <PUBCHEM_EFFECTIVE_ROTOR_COUNT>
9

> <PUBCHEM_PHARMACOPHORE_FEATURES>
9
1 17 hydrophobe
1 2 acceptor
1 3 acceptor
1 4 donor
1 5 donor
1 7 acceptor
5 1 6 19 21 22 rings
6 7 20 23 24 25 26 rings
6 8 10 11 13 15 16 rings

> <PUBCHEM_HEAVY_ATOM_COUNT>
26

> <PUBCHEM_ATOM_DEF_STEREO_COUNT>
0

> <PUBCHEM_ATOM_UDEF_STEREO_COUNT>
0

> <PUBCHEM_BOND_DEF_STEREO_COUNT>
0

> <PUBCHEM_BOND_UDEF_STEREO_COUNT>
0

> <PUBCHEM_ISOTOPIC_ATOM_COUNT>
0

> <PUBCHEM_COMPONENT_COUNT>
1

> <PUBCHEM_CACTVS_TAUTO_COUNT>
5

> <PUBCHEM_CONFORMER_ID>
0535B4E400000001

> <PUBCHEM_MMFF94_ENERGY>
59.7162

> <PUBCHEM_FEATURE_SELFOVERLAP>
45.723

> <PUBCHEM_SHAPE_FINGERPRINT>
10571361 74 18412824702950707567
10622 236 18411694379306288135
10939801 23 17915178155275052540
12107183 9 18124608482800207233
12174731 88 18193554467526660043
12596602 18 17918279766103096584
13533116 47 18340208586927806344
1361 2 18335984246380172098
13911852 28 18335139739634248924
14211702 104 18339651134822440375
14251740 57 18413110537719305790
14347332 77 18410856590427740917
14950920 106 18059292033544028552
15183329 4 14779534704242431701
15188451 53 18341327881148749385
15250474 111 18339932605240426813
15475509 35 18201151148139620944
15510800 12 17895203215911270794
15728490 83 18335996341308901227
16728300 4 18342454842598278039
17492 89 18337951186930265804
17857418 61 18339645654449718301
19315092 285 18202281386321907992
20028762 73 18412546522335043974
21585483 132 18269822263898094991
21728266 224 18272376403633819729
23559900 14 18128529561315516705
260245 28 18340760567567273047
3004659 81 18266750266816400365
312425 54 18130231458273465840
316301 35 18265051328641732378
32027 91 18121490264013370908
3472631 163 8214150650700997561
373842 8 18337393845698465075
3886686 26 17696765362753034569
50009960 94 18116977924265561106
50080093 196 17900262992187193147
5085150 59 18060420197483743863
5104073 3 17989491792353972376
5326457 24 18412829113707443043
56633871 153 18193564354619801736
59682541 52 16154529000638432681
7970288 3 18409729560237195446
9555976 147 17702952413819966345
96874 4 18410849988503863703

> <PUBCHEM_SHAPE_MULTIPOLES>
507.25
18.72
5.31
1.22
8.51
6.05
0.15
16.13
1.81
-5.82
0.95
-0.23
-0.46
-3.52

> <PUBCHEM_SHAPE_SELFOVERLAP>
1066.636

> <PUBCHEM_SHAPE_VOLUME>
287.4

> <PUBCHEM_COORDINATE_TYPE>
2
5
10

$$$$
88898863
  -OEChem-05102415093D

 46 48  0     0  0  0  0  0  0999 V2000
   -2.8353    3.0088    1.1872 S   0  0  0  0  0  0  0  0  0  0  0  0
    4.7733   -2.1535    0.0089 O   0  0  0  0  0  0  0  0  0  0  0  0
    0.3435    0.6097   -1.2752 O   0  0  0  0  0  0  0  0  0  0  0  0
    1.6066    2.4870   -0.7996 N   0  0  0  0  0  0  0  0  0  0  0  0
   -0.5521    2.3793   -0.0193 N   0  0  0  0  0  0  0  0  0  0  0  0
   -2.4276    0.8056   -0.1019 N   0  0  0  0  0  0  0  0  0  0  0  0
   -6.2673   -2.5287   -0.3271 N   0  0  0  0  0  0  0  0  0  0  0  0
    3.7234    1.2997   -0.5892 C   0  0  0  0  0  0  0  0  0  0  0  0
    3.5790   -2.9066    0.2160 C   0  0  0  0  0  0  0  0  0  0  0  0
    2.8035    2.0626   -1.4809 C   0  0  0  0  0  0  0  0  0  0  0  0
    4.6801   -0.8006    0.1255 C   0  0  0  0  0  0  0  0  0  0  0  0
    3.8201   -0.0866   -0.7089 C   0  0  0  0  0  0  0  0  0  0  0  0
    4.4867    1.9723    0.3654 C   0  0  0  0  0  0  0  0  0  0  0  0
    5.4435   -0.1281    1.0799 C   0  0  0  0  0  0  0  0  0  0  0  0
    3.7756   -3.8419    1.3993 C   0  0  0  0  0  0  0  0  0  0  0  0
    3.2395   -3.6668   -1.0570 C   0  0  0  0  0  0  0  0  0  0  0  0
    5.3466    1.2583    1.2000 C   0  0  0  0  0  0  0  0  0  0  0  0
    0.4400    1.7140   -0.7451 C   0  0  0  0  0  0  0  0  0  0  0  0
   -3.7211    0.7736    0.3817 C   0  0  0  0  0  0  0  0  0  0  0  0
   -1.8658    1.9370    0.2619 C   0  0  0  0  0  0  0  0  0  0  0  0
   -4.5845   -0.3463    0.1413 C   0  0  0  0  0  0  0  0  0  0  0  0
   -4.1219    1.8780    1.1039 C   0  0  0  0  0  0  0  0  0  0  0  0
   -5.9599   -0.1612    0.0542 C   0  0  0  0  0  0  0  0  0  0  0  0
   -4.0496   -1.6213   -0.0056 C   0  0  0  0  0  0  0  0  0  0  0  0
   -6.7506   -1.2747   -0.1791 C   0  0  0  0  0  0  0  0  0  0  0  0
   -4.9258   -2.6696   -0.2364 C   0  0  0  0  0  0  0  0  0  0  0  0
    2.7323   -2.2499    0.4588 H   0  0  0  0  0  0  0  0  0  0  0  0
    3.3052    2.9622   -1.8560 H   0  0  0  0  0  0  0  0  0  0  0  0
    2.5246    1.4695   -2.3598 H   0  0  0  0  0  0  0  0  0  0  0  0
    3.2300   -0.6060   -1.4591 H   0  0  0  0  0  0  0  0  0  0  0  0
    4.4198    3.0521    0.4684 H   0  0  0  0  0  0  0  0  0  0  0  0
    6.1146   -0.6791    1.7332 H   0  0  0  0  0  0  0  0  0  0  0  0
    2.8787   -4.4392    1.5897 H   0  0  0  0  0  0  0  0  0  0  0  0
    4.0127   -3.2702    2.3030 H   0  0  0  0  0  0  0  0  0  0  0  0
    4.6186   -4.5198    1.2259 H   0  0  0  0  0  0  0  0  0  0  0  0
    3.0947   -2.9792   -1.8963 H   0  0  0  0  0  0  0  0  0  0  0  0
    2.3285   -4.2606   -0.9344 H   0  0  0  0  0  0  0  0  0  0  0  0
    4.0583   -4.3376   -1.3399 H   0  0  0  0  0  0  0  0  0  0  0  0
    5.9407    1.7818    1.9434 H   0  0  0  0  0  0  0  0  0  0  0  0
    1.6192    3.3813   -0.3188 H   0  0  0  0  0  0  0  0  0  0  0  0
   -0.3273    3.2935    0.3632 H   0  0  0  0  0  0  0  0  0  0  0  0
   -5.0646    2.0876    1.5902 H   0  0  0  0  0  0  0  0  0  0  0  0
   -6.4339    0.8105    0.1438 H   0  0  0  0  0  0  0  0  0  0  0  0
   -2.9836   -1.8143    0.0589 H   0  0  0  0  0  0  0  0  0  0  0  0
   -7.8289   -1.1836   -0.2597 H   0  0  0  0  0  0  0  0  0  0  0  0
   -4.5591   -3.6837   -0.3571 H   0  0  0  0  0  0  0  0  0  0  0  0
  1 20  1  0  0  0  0
  1 22  1  0  0  0  0
  2  9  1  0  0  0  0
  2 11  1  0  0  0  0
  3 18  2  0  0  0  0
  4 10  1  0  0  0  0
  4 18  1  0  0  0  0
  4 40  1  0  0  0  0
  5 18  1  0  0  0  0
  5 20  1  0  0  0  0
  5 41  1  0  0  0  0
  6 19  1  0  0  0  0
  6 20  2  0  0  0  0
  7 25  2  0  0  0  0
  7 26  1  0  0  0  0
  8 10  1  0  0  0  0
  8 12  2  0  0  0  0
  8 13  1  0  0  0  0
  9 15  1  0  0  0  0
  9 16  1  0  0  0  0
  9 27  1  0  0  0  0
 10 28  1  0  0  0  0
 10 29  1  0  0  0  0
 11 12  1  0  0  0  0
 11 14  2  0  0  0  0
 12 30  1  0  0  0  0
 13 17  2  0  0  0  0
 13 31  1  0  0  0  0
 14 17  1  0  0  0  0
 14 32  1  0  0  0  0
 15 33  1  0  0  0  0
 15 34  1  0  0  0  0
 15 35  1  0  0  0  0
 16 36  1  0  0  0  0
 16 37  1  0  0  0  0
 16 38  1  0  0  0  0
 17 39  1  0  0  0  0
 19 21  1  0  0  0  0
 19 22  2  0  0  0  0
 21 23  2  0  0  0  0
 21 24  1  0  0  0  0
 22 42  1  0  0  0  0
 23 25  1  0  0  0  0
 23 43  1  0  0  0  0
 24 26  2  0  0  0  0
 24 44  1  0  0  0  0
 25 45  1  0  0  0  0
 26 46  1  0  0  0  0
M  END
> <PUBCHEM_COMPOUND_CID>
88898863

> <PUBCHEM_CONFORMER_RMSD>
1

> <PUBCHEM_CONFORMER_DIVERSEORDER>
1
11
97
56
74
67
83
4
106
54
105
17
27
37
47
59
66
49
98
101
85
99
90
77
61
39
29
68
71
100
8
60
81
102
57
76
19
10
6
103
31
87
20
80
73
16
88
91
3
22
14
7
70
55
41
69
62
82
58
46
23
65
28
25
51
42
18
107
89
75
36
40
35
96
78
44
26
92
95
34
94
21
45
2
79
104
72
48
43
5
24
64
86
12
9
32
93
30
63
13
52
33
84
38
53
50
15

> <PUBCHEM_MMFF94_PARTIAL_CHARGES>
35
1 -0.08
10 0.44
11 0.08
12 -0.15
13 -0.15
14 -0.15
17 -0.15
18 0.69
19 0.17
2 -0.36
20 0.44
21 0.05
22 -0.11
23 -0.15
24 -0.15
25 0.16
26 0.16
3 -0.57
30 0.15
31 0.15
32 0.15
39 0.15
4 -0.73
40 0.37
41 0.37
42 0.15
43 0.15
44 0.15
45 0.15
46 0.15
5 -0.49
6 -0.57
7 -0.62
8 -0.14
9 0.28

> <PUBCHEM_EFFECTIVE_ROTOR_COUNT>
8

> <PUBCHEM_PHARMACOPHORE_FEATURES>
9
1 2 acceptor
1 3 acceptor
1 4 donor
1 5 donor
1 7 acceptor
3 9 15 16 hydrophobe
5 1 6 19 20 22 rings
6 7 21 23 24 25 26 rings
6 8 11 12 13 14 17 rings

> <PUBCHEM_HEAVY_ATOM_COUNT>
26

> <PUBCHEM_ATOM_DEF_STEREO_COUNT>
0

> <PUBCHEM_ATOM_UDEF_STEREO_COUNT>
0

> <PUBCHEM_BOND_DEF_STEREO_COUNT>
0

> <PUBCHEM_BOND_UDEF_STEREO_COUNT>
0

> <PUBCHEM_ISOTOPIC_ATOM_COUNT>
0

> <PUBCHEM_COMPONENT_COUNT>
1

> <PUBCHEM_CACTVS_TAUTO_COUNT>
5

> <PUBCHEM_CONFORMER_ID>
054C7D2F00000001

> <PUBCHEM_MMFF94_ENERGY>
64.0437

> <PUBCHEM_FEATURE_SELFOVERLAP>
45.723

> <PUBCHEM_SHAPE_FINGERPRINT>
10928967 22 17757004306800104634
10939801 23 18056760059954727620
11443803 9 17970352727938791196
1200032 147 14332547000166906890
12107183 9 17979082586961987633
12596602 18 17918277545620588480
12892183 10 18201996591367781328
13150687 139 17606712295240040436
13533116 47 18411140259483750416
1361 2 18334858333472344146
13692114 37 18193556895301293264
13885169 86 9295292759581894295
14211702 104 18409456907587709843
14251740 57 18342181021052562070
14347332 77 18408322190340017765
14394314 77 18342744031346795113
1454969 45 18260835947148347652
14681488 357 18127706924205981366
14950920 106 18057884641396229552
15119646 104 18410578396858324143
15183329 4 18260551168950837301
15188451 53 18410568509095087777
15250474 111 18410580595317239837
15361156 5 17823718381527247676
17492 89 18269275664710231638
17857418 61 18336829783601104461
20028762 73 18410009949120514758
21197605 99 18411418457965208994
21728266 224 18342179977307203345
23559900 14 17772212828543935548
23572383 38 18259987110495388331
25222932 49 17917704747270240180
3004659 81 18263088867125512477
3117164 225 17839187311897626880
312425 54 18129951078603112393
373842 8 18336830895792425603
3886686 26 17695638354881805641
5104073 3 18060141998570684617
5326457 24 18410576184454398651
59682541 52 15719933818377262721
6679774 75 16907473665291373545
7970288 3 18267866267250581171

> <PUBCHEM_SHAPE_MULTIPOLES>
507.25
17.39
4.65
1.18
11.79
3.32
0.05
9.53
2.52
-2.1
0.39
-1.08
-0.2
-1.84

> <PUBCHEM_SHAPE_SELFOVERLAP>
1069.089

> <PUBCHEM_SHAPE_VOLUME>
287.5

> <PUBCHEM_COORDINATE_TYPE>
2
5
10

$$$$
87406334
  -OEChem-05102415093D

 36 38  0     0  0  0  0  0  0999 V2000
   -2.0446   -2.8980   -1.0277 S   0  0  0  0  0  0  0  0  0  0  0  0
    4.8686    3.2102   -0.2587 F   0  0  0  0  0  0  0  0  0  0  0  0
    0.8257    0.0198    1.2464 O   0  0  0  0  0  0  0  0  0  0  0  0
    2.3104   -1.7105    0.8627 N   0  0  0  0  0  0  0  0  0  0  0  0
    0.1500   -1.9187    0.1080 N   0  0  0  0  0  0  0  0  0  0  0  0
   -1.9070   -0.5886    0.1256 N   0  0  0  0  0  0  0  0  0  0  0  0
   -6.1320    2.2493    0.2111 N   0  0  0  0  0  0  0  0  0  0  0  0
    3.4493   -1.1008    1.5015 C   0  0  0  0  0  0  0  0  0  0  0  0
    4.2606   -0.2836    0.5542 C   0  0  0  0  0  0  0  0  0  0  0  0
   -3.1975   -0.7465   -0.3408 C   0  0  0  0  0  0  0  0  0  0  0  0
    4.1842    1.1087    0.5920 C   0  0  0  0  0  0  0  0  0  0  0  0
    5.0956   -0.9115   -0.3701 C   0  0  0  0  0  0  0  0  0  0  0  0
   -4.1926    0.2694   -0.1536 C   0  0  0  0  0  0  0  0  0  0  0  0
   -1.2106   -1.6608   -0.1800 C   0  0  0  0  0  0  0  0  0  0  0  0
    1.0559   -1.0933    0.7800 C   0  0  0  0  0  0  0  0  0  0  0  0
    4.9428    1.8733   -0.2944 C   0  0  0  0  0  0  0  0  0  0  0  0
    5.8541   -0.1471   -1.2567 C   0  0  0  0  0  0  0  0  0  0  0  0
   -3.4620   -1.9331   -0.9920 C   0  0  0  0  0  0  0  0  0  0  0  0
    5.7779    1.2453   -1.2188 C   0  0  0  0  0  0  0  0  0  0  0  0
   -5.5335   -0.0799   -0.0365 C   0  0  0  0  0  0  0  0  0  0  0  0
   -3.8203    1.6076   -0.0884 C   0  0  0  0  0  0  0  0  0  0  0  0
   -6.4557    0.9384    0.1429 C   0  0  0  0  0  0  0  0  0  0  0  0
   -4.8193    2.5505    0.0934 C   0  0  0  0  0  0  0  0  0  0  0  0
    4.0619   -1.9069    1.9215 H   0  0  0  0  0  0  0  0  0  0  0  0
    3.1043   -0.4952    2.3478 H   0  0  0  0  0  0  0  0  0  0  0  0
    2.4315   -2.6232    0.4346 H   0  0  0  0  0  0  0  0  0  0  0  0
    3.5369    1.6117    1.3053 H   0  0  0  0  0  0  0  0  0  0  0  0
    5.1635   -1.9955   -0.4093 H   0  0  0  0  0  0  0  0  0  0  0  0
    0.4848   -2.8190   -0.2239 H   0  0  0  0  0  0  0  0  0  0  0  0
    6.5040   -0.6358   -1.9766 H   0  0  0  0  0  0  0  0  0  0  0  0
   -4.3743   -2.2869   -1.4520 H   0  0  0  0  0  0  0  0  0  0  0  0
    6.3682    1.8407   -1.9090 H   0  0  0  0  0  0  0  0  0  0  0  0
   -5.8828   -1.1067   -0.0629 H   0  0  0  0  0  0  0  0  0  0  0  0
   -2.7873    1.9276   -0.1789 H   0  0  0  0  0  0  0  0  0  0  0  0
   -7.5135    0.7187    0.2438 H   0  0  0  0  0  0  0  0  0  0  0  0
   -4.5815    3.6077    0.1499 H   0  0  0  0  0  0  0  0  0  0  0  0
  1 14  1  0  0  0  0
  1 18  1  0  0  0  0
  2 16  1  0  0  0  0
  3 15  2  0  0  0  0
  4  8  1  0  0  0  0
  4 15  1  0  0  0  0
  4 26  1  0  0  0  0
  5 14  1  0  0  0  0
  5 15  1  0  0  0  0
  5 29  1  0  0  0  0
  6 10  1  0  0  0  0
  6 14  2  0  0  0  0
  7 22  2  0  0  0  0
  7 23  1  0  0  0  0
  8  9  1  0  0  0  0
  8 24  1  0  0  0  0
  8 25  1  0  0  0  0
  9 11  2  0  0  0  0
  9 12  1  0  0  0  0
 10 13  1  0  0  0  0
 10 18  2  0  0  0  0
 11 16  1  0  0  0  0
 11 27  1  0  0  0  0
 12 17  2  0  0  0  0
 12 28  1  0  0  0  0
 13 20  2  0  0  0  0
 13 21  1  0  0  0  0
 16 19  2  0  0  0  0
 17 19  1  0  0  0  0
 17 30  1  0  0  0  0
 18 31  1  0  0  0  0
 19 32  1  0  0  0  0
 20 22  1  0  0  0  0
 20 33  1  0  0  0  0
 21 23  2  0  0  0  0
 21 34  1  0  0  0  0
 22 35  1  0  0  0  0
 23 36  1  0  0  0  0
M  END
> <PUBCHEM_COMPOUND_CID>
87406334

> <PUBCHEM_CONFORMER_RMSD>
0.8

> <PUBCHEM_CONFORMER_DIVERSEORDER>
1
87
70
125
52
83
21
14
140
148
104
15
101
137
79
26
108
128
61
110
143
24
40
22
89
151
13
28
107
153
126
49
92
56
77
91
71
121
117
63
111
120
44
39
27
73
88
37
17
138
66
69
114
141
42
23
122
142
30
132
58
103
78
38
54
81
36
154
2
72
55
16
149
86
57
74
10
129
12
60
109
20
6
131
144
97
53
62
43
105
65
41
145
32
9
51
84
67
19
25
59
85
4
50
106
133
48
45
102
139
100
124
135
33
113
147
47
118
99
34
130
112
152
3
8
119
46
35
94
31
115
64
90
136
150
75
5
146
134
11
18
116
93
68
80
29
123
96
98
76
82
7
95
127

> <PUBCHEM_MMFF94_PARTIAL_CHARGES>
34
1 -0.08
10 0.17
11 -0.15
12 -0.15
13 0.05
14 0.44
15 0.69
16 0.19
17 -0.15
18 -0.11
19 -0.15
2 -0.19
20 -0.15
21 -0.15
22 0.16
23 0.16
26 0.37
27 0.15
28 0.15
29 0.37
3 -0.57
30 0.15
31 0.15
32 0.15
33 0.15
34 0.15
35 0.15
36 0.15
4 -0.73
5 -0.49
6 -0.57
7 -0.62
8 0.44
9 -0.14

> <PUBCHEM_EFFECTIVE_ROTOR_COUNT>
6

> <PUBCHEM_PHARMACOPHORE_FEATURES>
7
1 3 acceptor
1 4 donor
1 5 donor
1 7 acceptor
5 1 6 10 14 18 rings
6 7 13 20 21 22 23 rings
6 9 11 12 16 17 19 rings

> <PUBCHEM_HEAVY_ATOM_COUNT>
23

> <PUBCHEM_ATOM_DEF_STEREO_COUNT>
0

> <PUBCHEM_ATOM_UDEF_STEREO_COUNT>
0

> <PUBCHEM_BOND_DEF_STEREO_COUNT>
0

> <PUBCHEM_BOND_UDEF_STEREO_COUNT>
0

> <PUBCHEM_ISOTOPIC_ATOM_COUNT>
0

> <PUBCHEM_COMPONENT_COUNT>
1

> <PUBCHEM_CACTVS_TAUTO_COUNT>
5

> <PUBCHEM_CONFORMER_ID>
0535B6FE00000001

> <PUBCHEM_MMFF94_ENERGY>
47.7749

> <PUBCHEM_FEATURE_SELFOVERLAP>
35.573

> <PUBCHEM_SHAPE_FINGERPRINT>
10 15 13190347885192402342
10378564 45 18060142025163005022
10554248 39 18193818376472109647
10638233 991 18408037425017067997
10670039 82 17916591929612371984
10753850 27 10519978271389429631
11056379 131 18269833288936673183
11070050 100 16226042284828348016
11991303 11 17489582403073784231
12390115 104 18060140904266328635
12596602 18 17530964653562174065
12616971 3 18041826355793023130
13690498 29 17700971299920402527
13885169 86 18408328799957128225
13914758 101 12247408878154926883
13955234 65 17095792214854367890
14251751 18 8214141845743344343
14251757 5 18201720682209023075
14528608 73 18408321107654467474
1454969 45 18411694388655527311
14790565 3 18410573951097856369
14840074 17 17967817136978874269
14848178 5 10375870770846000200
15001296 14 18261108633757164180
15142526 21 17967812781786915338
15183329 4 17561371660064879810
15188451 53 9655579582661844422
15210252 30 18114464574039441052
15575132 122 18188486874759283221
17349148 13 11311778422804951682
17844677 252 18338240474204717522
17857418 61 10015860989824905595
17959699 21 18410856590263807986
18222031 100 11815902284069605954
19611394 137 18115322193198186691
21315764 119 18131079203809299614
22061861 79 15482669087084721294
23559900 14 17346590915749295266
245318 6 17750250259862414460
268830 7 17968642883207044298
3004659 81 18272650109225688626
3298306 158 17489585662558517342
3472631 163 18411982463868175166
38570 142 18187374207467064818
393628 194 17755022239839730124
4058900 60 18197786509942264763
5104073 3 17531519984122683018
59682541 52 15913046456942604373
633830 44 18334850645707847626
6438161 24 9294992550216541513
7062679 6 18410572873134775075
7808743 9 18412538821542746795

> <PUBCHEM_SHAPE_MULTIPOLES>
444.11
17.93
3.03
1.11
1.26
0.65
0.03
11.98
-3.07
-1.37
-0.54
1.3
-0.31
-1.65

> <PUBCHEM_SHAPE_SELFOVERLAP>
949.557

> <PUBCHEM_SHAPE_VOLUME>
247.8

> <PUBCHEM_COORDINATE_TYPE>
2
5
10

$$$$
87405236
  -OEChem-05102415093D

 36 38  0     0  0  0  0  0  0999 V2000
    1.8455    2.8714   -0.8938 S   0  0  0  0  0  0  0  0  0  0  0  0
   -5.2901    1.5907   -0.4067 F   0  0  0  0  0  0  0  0  0  0  0  0
   -0.8112   -0.3433    1.2350 O   0  0  0  0  0  0  0  0  0  0  0  0
   -2.4139    1.2949    0.9294 N   0  0  0  0  0  0  0  0  0  0  0  0
   -0.2740    1.6889    0.1900 N   0  0  0  0  0  0  0  0  0  0  0  0
    1.8711    0.5065    0.1501 N   0  0  0  0  0  0  0  0  0  0  0  0
    6.2845   -2.0296    0.1124 N   0  0  0  0  0  0  0  0  0  0  0  0
   -3.5065    0.5779    1.5362 C   0  0  0  0  0  0  0  0  0  0  0  0
   -4.2223   -0.2955    0.5617 C   0  0  0  0  0  0  0  0  0  0  0  0
    3.1469    0.7761   -0.3055 C   0  0  0  0  0  0  0  0  0  0  0  0
   -5.0910    0.2655   -0.3742 C   0  0  0  0  0  0  0  0  0  0  0  0
   -4.0213   -1.6755    0.5873 C   0  0  0  0  0  0  0  0  0  0  0  0
    4.2109   -0.1754   -0.1637 C   0  0  0  0  0  0  0  0  0  0  0  0
    1.1010    1.5406   -0.1066 C   0  0  0  0  0  0  0  0  0  0  0  0
   -1.1192    0.7716    0.8206 C   0  0  0  0  0  0  0  0  0  0  0  0
   -5.7590   -0.5534   -1.2846 C   0  0  0  0  0  0  0  0  0  0  0  0
   -4.6894   -2.4947   -0.3231 C   0  0  0  0  0  0  0  0  0  0  0  0
    3.3270    2.0074   -0.9001 C   0  0  0  0  0  0  0  0  0  0  0  0
   -5.5582   -1.9336   -1.2591 C   0  0  0  0  0  0  0  0  0  0  0  0
    5.5241    0.2611   -0.0275 C   0  0  0  0  0  0  0  0  0  0  0  0
    3.9333   -1.5379   -0.1620 C   0  0  0  0  0  0  0  0  0  0  0  0
    6.5155   -0.6976    0.1062 C   0  0  0  0  0  0  0  0  0  0  0  0
    4.9959   -2.4161   -0.0221 C   0  0  0  0  0  0  0  0  0  0  0  0
   -4.1965    1.3191    1.9558 H   0  0  0  0  0  0  0  0  0  0  0  0
   -3.1228   -0.0071    2.3805 H   0  0  0  0  0  0  0  0  0  0  0  0
   -2.5991    2.2159    0.5442 H   0  0  0  0  0  0  0  0  0  0  0  0
   -3.3465   -2.1270    1.3097 H   0  0  0  0  0  0  0  0  0  0  0  0
   -0.6713    2.5780   -0.1002 H   0  0  0  0  0  0  0  0  0  0  0  0
   -6.4352   -0.1163   -2.0133 H   0  0  0  0  0  0  0  0  0  0  0  0
   -4.5327   -3.5692   -0.3035 H   0  0  0  0  0  0  0  0  0  0  0  0
    4.2118    2.4452   -1.3410 H   0  0  0  0  0  0  0  0  0  0  0  0
   -6.0781   -2.5712   -1.9680 H   0  0  0  0  0  0  0  0  0  0  0  0
    5.8007    1.3099   -0.0051 H   0  0  0  0  0  0  0  0  0  0  0  0
    2.9251   -1.9248   -0.2697 H   0  0  0  0  0  0  0  0  0  0  0  0
    7.5554   -0.4094    0.2196 H   0  0  0  0  0  0  0  0  0  0  0  0
    4.8329   -3.4888   -0.0157 H   0  0  0  0  0  0  0  0  0  0  0  0
  1 14  1  0  0  0  0
  1 18  1  0  0  0  0
  2 11  1  0  0  0  0
  3 15  2  0  0  0  0
  4  8  1  0  0  0  0
  4 15  1  0  0  0  0
  4 26  1  0  0  0  0
  5 14  1  0  0  0  0
  5 15  1  0  0  0  0
  5 28  1  0  0  0  0
  6 10  1  0  0  0  0
  6 14  2  0  0  0  0
  7 22  2  0  0  0  0
  7 23  1  0  0  0  0
  8  9  1  0  0  0  0
  8 24  1  0  0  0  0
  8 25  1  0  0  0  0
  9 11  1  0  0  0  0
  9 12  2  0  0  0  0
 10 13  1  0  0  0  0
 10 18  2  0  0  0  0
 11 16  2  0  0  0  0
 12 17  1  0  0  0  0
 12 27  1  0  0  0  0
 13 20  2  0  0  0  0
 13 21  1  0  0  0  0
 16 19  1  0  0  0  0
 16 29  1  0  0  0  0
 17 19  2  0  0  0  0
 17 30  1  0  0  0  0
 18 31  1  0  0  0  0
 19 32  1  0  0  0  0
 20 22  1  0  0  0  0
 20 33  1  0  0  0  0
 21 23  2  0  0  0  0
 21 34  1  0  0  0  0
 22 35  1  0  0  0  0
 23 36  1  0  0  0  0
M  END
> <PUBCHEM_COMPOUND_CID>
87405236

> <PUBCHEM_CONFORMER_RMSD>
0.8

> <PUBCHEM_CONFORMER_DIVERSEORDER>
1
110
41
60
108
129
55
5
36
157
107
174
159
119
77
57
132
48
94
118
136
140
158
114
30
117
165
112
67
126
164
134
49
14
143
40
95
149
90
52
173
16
20
166
142
34
53
98
84
171
131
22
162
101
88
13
59
176
2
153
42
21
47
54
71
150
141
33
50
128
154
26
80
66
11
121
70
105
96
109
12
44
144
15
145
85
115
100
69
31
61
127
86
91
133
83
92
10
167
25
27
17
65
97
139
32
87
74
130
76
148
155
137
168
63
19
56
18
161
46
151
82
175
37
138
120
160
28
156
123
51
113
111
4
102
81
58
79
68
43
147
38
29
64
124
116
122
3
163
152
73
62
125
146
104
45
6
106
24
39
103
9
89
93
72
99
78
35
135
75
7
8
172
23
170
169

> <PUBCHEM_MMFF94_PARTIAL_CHARGES>
34
1 -0.08
10 0.17
11 0.19
12 -0.15
13 0.05
14 0.44
15 0.69
16 -0.15
17 -0.15
18 -0.11
19 -0.15
2 -0.19
20 -0.15
21 -0.15
22 0.16
23 0.16
26 0.37
27 0.15
28 0.37
29 0.15
3 -0.57
30 0.15
31 0.15
32 0.15
33 0.15
34 0.15
35 0.15
36 0.15
4 -0.73
5 -0.49
6 -0.57
7 -0.62
8 0.44
9 -0.14

> <PUBCHEM_EFFECTIVE_ROTOR_COUNT>
6

> <PUBCHEM_PHARMACOPHORE_FEATURES>
7
1 3 acceptor
1 4 donor
1 5 donor
1 7 acceptor
5 1 6 10 14 18 rings
6 7 13 20 21 22 23 rings
6 9 11 12 16 17 19 rings

> <PUBCHEM_HEAVY_ATOM_COUNT>
23

> <PUBCHEM_ATOM_DEF_STEREO_COUNT>
0

> <PUBCHEM_ATOM_UDEF_STEREO_COUNT>
0

> <PUBCHEM_BOND_DEF_STEREO_COUNT>
0

> <PUBCHEM_BOND_UDEF_STEREO_COUNT>
0

> <PUBCHEM_ISOTOPIC_ATOM_COUNT>
0

> <PUBCHEM_COMPONENT_COUNT>
1

> <PUBCHEM_CACTVS_TAUTO_COUNT>
5

> <PUBCHEM_CONFORMER_ID>
0535B2B400000001

> <PUBCHEM_MMFF94_ENERGY>
47.843

> <PUBCHEM_FEATURE_SELFOVERLAP>
35.573

> <PUBCHEM_SHAPE_FINGERPRINT>
10 15 10519711111675957719
10447042 23 18260832584019675110
105312 117 15285358440120656691
10622 236 18057027219906051463
10670039 82 14996271497028974207
10815517 723 17532092692089502293
11796584 16 18059862739960180253
12342043 65 16736112433334533585
12390115 104 10159684820584565664
12555020 224 18186804694603129507
12596602 18 17346601855231380226
12616971 3 18339095851438468321
12839892 36 17632583733850761023
13533116 47 18343021129514278664
13885169 86 11311471629497678818
13911852 28 18264208003091762178
14211702 104 18202291302821665102
14251751 18 18131631205215628979
1454969 45 18408611383873846684
14848178 5 18272368680807458555
15183329 4 17458054958891567203
15188451 53 17775563139384142217
15250474 111 18343306997788845847
15728490 51 18202280338771854294
16126227 98 10014994584012301810
17349148 13 18059587909313616297
17857418 61 18342459235621327234
18222031 100 18334293154773501608
20028762 73 18271806792334146998
20567600 247 18342171193566092774
20621476 91 15339114676141397477
21728266 224 17917715699357587497
21756936 100 7925623388971460537
22061861 79 17967532388994094207
22393880 68 17749943470833296115
23559900 14 18336825398181182265
25122255 55 18202008706837079294
2838139 119 10737296770410382290
3004659 81 18333726940043308128
3014063 24 18343580729176820846
312425 54 16916239757860691154
314194 84 18337122219508220320
4015057 19 18188499089218933785
439807 62 18269273633718715231
445580 204 10881408638587522150
5104073 3 17346044475755603097
5207 123 18334014982288875420
531348 171 18335700503929377413
543368 44 8214134136577851515
559249 180 18343301449434462497
60123966 16 16951125209111036564
636775 72 7924756966110889086
6431902 208 18412266150911707675
7495541 125 17275101756253616528
7808743 9 10737289060527464985
960060 61 17894356596331964852
96874 4 18201147828103982031

> <PUBCHEM_SHAPE_MULTIPOLES>
444.11
17.86
2.82
1.11
0.57
0.11
-0.04
10.9
3.2
1.39
0.63
-1.4
-0.11
-1.42

> <PUBCHEM_SHAPE_SELFOVERLAP>
950.517

> <PUBCHEM_SHAPE_VOLUME>
247.4

> <PUBCHEM_COORDINATE_TYPE>
2
5
10

$$$$
87405780
  -OEChem-05102415093D

 36 38  0     0  0  0  0  0  0999 V2000
   -2.0493   -2.7613   -1.2822 S   0  0  0  0  0  0  0  0  0  0  0  0
    6.4519    2.3006   -1.6107 F   0  0  0  0  0  0  0  0  0  0  0  0
    0.7202   -0.0499    1.3450 O   0  0  0  0  0  0  0  0  0  0  0  0
    2.2397   -1.7148    0.8299 N   0  0  0  0  0  0  0  0  0  0  0  0
    0.1017   -1.8733    0.0021 N   0  0  0  0  0  0  0  0  0  0  0  0
   -1.9746   -0.5771    0.0986 N   0  0  0  0  0  0  0  0  0  0  0  0
   -6.2422    2.1855    0.3562 N   0  0  0  0  0  0  0  0  0  0  0  0
    3.3532   -1.1579    1.5555 C   0  0  0  0  0  0  0  0  0  0  0  0
    4.1753   -0.2401    0.7155 C   0  0  0  0  0  0  0  0  0  0  0  0
   -3.2507   -0.7037   -0.4146 C   0  0  0  0  0  0  0  0  0  0  0  0
    5.2488   -0.7423   -0.0203 C   0  0  0  0  0  0  0  0  0  0  0  0
    3.8711    1.1203    0.6653 C   0  0  0  0  0  0  0  0  0  0  0  0
   -4.2653    0.2760   -0.1532 C   0  0  0  0  0  0  0  0  0  0  0  0
   -1.2550   -1.6048   -0.2940 C   0  0  0  0  0  0  0  0  0  0  0  0
    0.9784   -1.1080    0.7762 C   0  0  0  0  0  0  0  0  0  0  0  0
    6.0181    0.1158   -0.8059 C   0  0  0  0  0  0  0  0  0  0  0  0
    4.6404    1.9785   -0.1204 C   0  0  0  0  0  0  0  0  0  0  0  0
   -3.4813   -1.8224   -1.1875 C   0  0  0  0  0  0  0  0  0  0  0  0
    5.7139    1.4763   -0.8559 C   0  0  0  0  0  0  0  0  0  0  0  0
   -5.2680    0.5091   -1.0879 C   0  0  0  0  0  0  0  0  0  0  0  0
   -4.2499    0.9966    1.0359 C   0  0  0  0  0  0  0  0  0  0  0  0
   -6.2245    1.4657   -0.7882 C   0  0  0  0  0  0  0  0  0  0  0  0
   -5.2519    1.9314    1.2408 C   0  0  0  0  0  0  0  0  0  0  0  0
    3.9593   -1.9965    1.9174 H   0  0  0  0  0  0  0  0  0  0  0  0
    2.9826   -0.6346    2.4451 H   0  0  0  0  0  0  0  0  0  0  0  0
    2.3856   -2.5778    0.3150 H   0  0  0  0  0  0  0  0  0  0  0  0
    5.4950   -1.8005    0.0087 H   0  0  0  0  0  0  0  0  0  0  0  0
    3.0404    1.5270    1.2355 H   0  0  0  0  0  0  0  0  0  0  0  0
    0.4580   -2.7317   -0.4090 H   0  0  0  0  0  0  0  0  0  0  0  0
    6.8536   -0.2748   -1.3792 H   0  0  0  0  0  0  0  0  0  0  0  0
    4.4043    3.0378   -0.1592 H   0  0  0  0  0  0  0  0  0  0  0  0
   -4.3832   -2.1517   -1.6848 H   0  0  0  0  0  0  0  0  0  0  0  0
   -5.3233   -0.0092   -2.0394 H   0  0  0  0  0  0  0  0  0  0  0  0
   -3.4901    0.8457    1.7960 H   0  0  0  0  0  0  0  0  0  0  0  0
   -7.0255    1.6883   -1.4854 H   0  0  0  0  0  0  0  0  0  0  0  0
   -5.2856    2.5189    2.1524 H   0  0  0  0  0  0  0  0  0  0  0  0
  1 14  1  0  0  0  0
  1 18  1  0  0  0  0
  2 19  1  0  0  0  0
  3 15  2  0  0  0  0
  4  8  1  0  0  0  0
  4 15  1  0  0  0  0
  4 26  1  0  0  0  0
  5 14  1  0  0  0  0
  5 15  1  0  0  0  0
  5 29  1  0  0  0  0
  6 10  1  0  0  0  0
  6 14  2  0  0  0  0
  7 22  2  0  0  0  0
  7 23  1  0  0  0  0
  8  9  1  0  0  0  0
  8 24  1  0  0  0  0
  8 25  1  0  0  0  0
  9 11  2  0  0  0  0
  9 12  1  0  0  0  0
 10 13  1  0  0  0  0
 10 18  2  0  0  0  0
 11 16  1  0  0  0  0
 11 27  1  0  0  0  0
 12 17  2  0  0  0  0
 12 28  1  0  0  0  0
 13 20  2  0  0  0  0
 13 21  1  0  0  0  0
 16 19  2  0  0  0  0
 16 30  1  0  0  0  0
 17 19  1  0  0  0  0
 17 31  1  0  0  0  0
 18 32  1  0  0  0  0
 20 22  1  0  0  0  0
 20 33  1  0  0  0  0
 21 23  2  0  0  0  0
 21 34  1  0  0  0  0
 22 35  1  0  0  0  0
 23 36  1  0  0  0  0
M  END
> <PUBCHEM_COMPOUND_CID>
87405780

> <PUBCHEM_CONFORMER_RMSD>
0.8

> <PUBCHEM_CONFORMER_DIVERSEORDER>
2
17
9
58
40
56
8
42
21
53
52
19
20
34
29
27
47
26
44
12
10
7
23
13
15
45
11
16
30
3
51
6
14
31
36
54
1
32
48
35
39
38
22
33
28
49
18
5
57
25
24
41
43
55
46
50
37
4

> <PUBCHEM_MMFF94_PARTIAL_CHARGES>
34
1 -0.08
10 0.17
11 -0.15
12 -0.15
13 0.05
14 0.44
15 0.69
16 -0.15
17 -0.15
18 -0.11
19 0.19
2 -0.19
20 -0.15
21 -0.15
22 0.16
23 0.16
26 0.37
27 0.15
28 0.15
29 0.37
3 -0.57
30 0.15
31 0.15
32 0.15
33 0.15
34 0.15
35 0.15
36 0.15
4 -0.73
5 -0.49
6 -0.57
7 -0.62
8 0.44
9 -0.14

> <PUBCHEM_EFFECTIVE_ROTOR_COUNT>
6

> <PUBCHEM_PHARMACOPHORE_FEATURES>
7
1 3 acceptor
1 4 donor
1 5 donor
1 7 acceptor
5 1 6 10 14 18 rings
6 7 13 20 21 22 23 rings
6 9 11 12 16 17 19 rings

> <PUBCHEM_HEAVY_ATOM_COUNT>
23

> <PUBCHEM_ATOM_DEF_STEREO_COUNT>
0

> <PUBCHEM_ATOM_UDEF_STEREO_COUNT>
0

> <PUBCHEM_BOND_DEF_STEREO_COUNT>
0

> <PUBCHEM_BOND_UDEF_STEREO_COUNT>
0

> <PUBCHEM_ISOTOPIC_ATOM_COUNT>
0

> <PUBCHEM_COMPONENT_COUNT>
1

> <PUBCHEM_CACTVS_TAUTO_COUNT>
5

> <PUBCHEM_CONFORMER_ID>
0535B4D400000002

> <PUBCHEM_MMFF94_ENERGY>
47.8858

> <PUBCHEM_FEATURE_SELFOVERLAP>
35.573

> <PUBCHEM_SHAPE_FINGERPRINT>
10378564 45 17988926661332169534
10554248 39 18267847407453398039
10591671 39 18202557402653920591
10670039 82 18060139795241821297
10753850 27 10159690301157520399
11056379 131 18129373981397183327
12390115 104 17917997161998262723
12555020 224 13686296898103230511
12596602 18 17749108864235164097
12616971 3 18040983034753856306
13668630 136 13470402279667931549
13690498 29 17630039614352852111
13885169 86 18260272970496506029
13955234 65 16878492437769938338
14211702 104 9655578547263963876
14251757 5 18060421321974176969
14251764 75 17968666033497312724
14528608 73 18410285952097471502
14790565 3 18412824660011032001
14840074 17 18260548909561202125
14848178 5 11312059850631798780
14931854 50 17274248445616696457
15052358 14 17703796911780339716
15183329 4 18060703879345949264
15188451 53 9007063439485663470
15575132 122 18336262328491123701
16120349 67 17130728093093649249
17349148 13 10375870822195807715
1768 23 18200891577749509561
18785283 64 14996865314986451894
19377110 9 10953745478081539278
21298829 104 18188775067402604404
21315764 119 17988933245416989878
22061861 79 14405181776619272361
22849339 104 17417522639882263999
23559900 14 17203320169767531890
25122255 55 12391504334660310853
3004659 81 18130504124974144586
312425 54 13407064852215279221
3472631 163 18412263943145140886
34797466 226 16056300834793505339
38570 142 18334585624550017714
393628 194 17607815212287012140
397830 11 17458641011985699227
4015057 19 13182729398687679651
4058900 60 18341899541565138747
406291 66 10447934949365088892
4258327 124 18334008403052937199
497634 4 18261381313078462839
5104073 3 17313376877245745194
5718773 13 12463307856277820268
57724786 102 18265049146070891379
59682541 52 15769492019807561213
6034566 193 18408324402031949335
6328613 192 18411420617864065532
633830 44 18260259781190315538
6898599 12 18199464535793852887

> <PUBCHEM_SHAPE_MULTIPOLES>
444.11
18.47
2.71
1.38
5.03
0.31
-0.01
-13.87
4.71
-1.46
0.56
0.57
-0.1
-2.77

> <PUBCHEM_SHAPE_SELFOVERLAP>
949.633

> <PUBCHEM_SHAPE_VOLUME>
248.2

> <PUBCHEM_COORDINATE_TYPE>
2
5
10

$$$$
87405158
  -OEChem-05102415093D

 36 38  0     0  0  0  0  0  0999 V2000
    4.8705    3.5485   -0.2445 Cl  0  0  0  0  0  0  0  0  0  0  0  0
   -2.0601   -2.9024   -1.0309 S   0  0  0  0  0  0  0  0  0  0  0  0
    0.8264   -0.0024    1.2455 O   0  0  0  0  0  0  0  0  0  0  0  0
    2.3018   -1.7404    0.8599 N   0  0  0  0  0  0  0  0  0  0  0  0
    0.1400   -1.9361    0.1053 N   0  0  0  0  0  0  0  0  0  0  0  0
   -1.9097   -0.5950    0.1247 N   0  0  0  0  0  0  0  0  0  0  0  0
   -6.1193    2.2656    0.2139 N   0  0  0  0  0  0  0  0  0  0  0  0
    3.4440   -1.1375    1.4988 C   0  0  0  0  0  0  0  0  0  0  0  0
    4.2595   -0.3237    0.5521 C   0  0  0  0  0  0  0  0  0  0  0  0
   -3.2011   -0.7455   -0.3416 C   0  0  0  0  0  0  0  0  0  0  0  0
    4.1918    1.0691    0.5921 C   0  0  0  0  0  0  0  0  0  0  0  0
    5.0909   -0.9552   -0.3731 C   0  0  0  0  0  0  0  0  0  0  0  0
   -4.1908    0.2756   -0.1531 C   0  0  0  0  0  0  0  0  0  0  0  0
   -1.2192   -1.6706   -0.1821 C   0  0  0  0  0  0  0  0  0  0  0  0
    1.0506   -1.1163    0.7779 C   0  0  0  0  0  0  0  0  0  0  0  0
    4.9555    1.8302   -0.2929 C   0  0  0  0  0  0  0  0  0  0  0  0
    5.8543   -0.1941   -1.2583 C   0  0  0  0  0  0  0  0  0  0  0  0
   -3.4722   -1.9299   -0.9940 C   0  0  0  0  0  0  0  0  0  0  0  0
    5.7869    1.1987   -1.2180 C   0  0  0  0  0  0  0  0  0  0  0  0
   -5.5335   -0.0666   -0.0361 C   0  0  0  0  0  0  0  0  0  0  0  0
   -3.8113    1.6117   -0.0867 C   0  0  0  0  0  0  0  0  0  0  0  0
   -6.4501    0.9566    0.1445 C   0  0  0  0  0  0  0  0  0  0  0  0
   -4.8050    2.5598    0.0964 C   0  0  0  0  0  0  0  0  0  0  0  0
    4.0526   -1.9474    1.9176 H   0  0  0  0  0  0  0  0  0  0  0  0
    3.1025   -0.5314    2.3462 H   0  0  0  0  0  0  0  0  0  0  0  0
    2.4179   -2.6533    0.4307 H   0  0  0  0  0  0  0  0  0  0  0  0
    3.5424    1.5617    1.3123 H   0  0  0  0  0  0  0  0  0  0  0  0
    5.1522   -2.0396   -0.4139 H   0  0  0  0  0  0  0  0  0  0  0  0
    0.4699   -2.8378   -0.2276 H   0  0  0  0  0  0  0  0  0  0  0  0
    6.5014   -0.6859   -1.9787 H   0  0  0  0  0  0  0  0  0  0  0  0
   -4.3865   -2.2783   -1.4542 H   0  0  0  0  0  0  0  0  0  0  0  0
    6.3874    1.7789   -1.9139 H   0  0  0  0  0  0  0  0  0  0  0  0
   -5.8884   -1.0914   -0.0635 H   0  0  0  0  0  0  0  0  0  0  0  0
   -2.7765    1.9261   -0.1772 H   0  0  0  0  0  0  0  0  0  0  0  0
   -7.5091    0.7426    0.2454 H   0  0  0  0  0  0  0  0  0  0  0  0
   -4.5616    3.6156    0.1539 H   0  0  0  0  0  0  0  0  0  0  0  0
  1 16  1  0  0  0  0
  2 14  1  0  0  0  0
  2 18  1  0  0  0  0
  3 15  2  0  0  0  0
  4  8  1  0  0  0  0
  4 15  1  0  0  0  0
  4 26  1  0  0  0  0
  5 14  1  0  0  0  0
  5 15  1  0  0  0  0
  5 29  1  0  0  0  0
  6 10  1  0  0  0  0
  6 14  2  0  0  0  0
  7 22  2  0  0  0  0
  7 23  1  0  0  0  0
  8  9  1  0  0  0  0
  8 24  1  0  0  0  0
  8 25  1  0  0  0  0
  9 11  2  0  0  0  0
  9 12  1  0  0  0  0
 10 13  1  0  0  0  0
 10 18  2  0  0  0  0
 11 16  1  0  0  0  0
 11 27  1  0  0  0  0
 12 17  2  0  0  0  0
 12 28  1  0  0  0  0
 13 20  2  0  0  0  0
 13 21  1  0  0  0  0
 16 19  2  0  0  0  0
 17 19  1  0  0  0  0
 17 30  1  0  0  0  0
 18 31  1  0  0  0  0
 19 32  1  0  0  0  0
 20 22  1  0  0  0  0
 20 33  1  0  0  0  0
 21 23  2  0  0  0  0
 21 34  1  0  0  0  0
 22 35  1  0  0  0  0
 23 36  1  0  0  0  0
M  END
> <PUBCHEM_COMPOUND_CID>
87405158

> <PUBCHEM_CONFORMER_RMSD>
0.8

> <PUBCHEM_CONFORMER_DIVERSEORDER>
1
49
134
110
36
108
79
41
135
25
70
99
130
150
62
55
109
44
52
119
103
112
40
118
20
138
46
74
142
116
31
26
146
126
95
73
133
17
96
78
47
91
121
156
66
45
5
152
94
80
39
2
75
158
125
120
107
76
23
28
105
51
100
77
10
147
21
61
72
59
149
106
33
68
15
6
27
32
128
71
48
19
137
29
13
89
63
143
3
65
18
64
12
155
114
111
117
86
124
22
42
122
101
145
83
102
58
84
132
136
37
151
54
113
34
123
38
16
87
115
129
4
24
92
67
50
141
140
93
97
35
82
159
56
90
57
81
88
144
69
60
148
30
153
154
14
98
104
139
11
53
43
85
7
8
131
157
9
127

> <PUBCHEM_MMFF94_PARTIAL_CHARGES>
34
1 -0.18
10 0.17
11 -0.15
12 -0.15
13 0.05
14 0.44
15 0.69
16 0.18
17 -0.15
18 -0.11
19 -0.15
2 -0.08
20 -0.15
21 -0.15
22 0.16
23 0.16
26 0.37
27 0.15
28 0.15
29 0.37
3 -0.57
30 0.15
31 0.15
32 0.15
33 0.15
34 0.15
35 0.15
36 0.15
4 -0.73
5 -0.49
6 -0.57
7 -0.62
8 0.44
9 -0.14

> <PUBCHEM_EFFECTIVE_ROTOR_COUNT>
6

> <PUBCHEM_PHARMACOPHORE_FEATURES>
7
1 3 acceptor
1 4 donor
1 5 donor
1 7 acceptor
5 2 6 10 14 18 rings
6 7 13 20 21 22 23 rings
6 9 11 12 16 17 19 rings

> <PUBCHEM_HEAVY_ATOM_COUNT>
23

> <PUBCHEM_ATOM_DEF_STEREO_COUNT>
0

> <PUBCHEM_ATOM_UDEF_STEREO_COUNT>
0

> <PUBCHEM_BOND_DEF_STEREO_COUNT>
0

> <PUBCHEM_BOND_UDEF_STEREO_COUNT>
0

> <PUBCHEM_ISOTOPIC_ATOM_COUNT>
0

> <PUBCHEM_COMPONENT_COUNT>
1

> <PUBCHEM_CACTVS_TAUTO_COUNT>
5

> <PUBCHEM_CONFORMER_ID>
0535B26600000001

> <PUBCHEM_MMFF94_ENERGY>
48.4618

> <PUBCHEM_FEATURE_SELFOVERLAP>
35.573

> <PUBCHEM_SHAPE_FINGERPRINT>
10 15 13190348984698781350
10378564 45 18059860550191595118
10554248 39 18193818376472116143
10638233 991 18408318904294040197
10670039 82 17916591929628176744
10753850 27 10519977171877801855
11056379 131 18269833288936679687
11070050 100 16298381353874641624
11991303 11 17489302027587608839
12390115 104 18060140904266335131
12596602 18 17530964653556879825
12616971 3 18114165429107903762
13690498 29 17700972403711160351
13885169 86 18409173224908365753
13914758 101 12247690353131644027
14251751 18 8142084251684343375
14251757 5 18201720682203754819
14429114 114 18194396921293851304
14528608 73 18408321107670298218
1454969 45 18411975863632244463
14790565 3 18410573951087319849
14840074 17 17967817136984142525
14848178 5 10303814272030007496
15001296 14 18261953050113172832
15142526 21 18040151846464401626
15183329 4 17560808710106196714
15188451 53 9583521988613399454
15210252 30 18114464574044709316
15575132 122 18261107414455671637
17844677 252 18338240474225803530
17857418 61 10015579514848207923
17959699 21 18410856598874809114
21120745 212 18050562143438345511
21315764 119 18131360678770173014
21774942 28 18341611564714628744
22061861 79 15482669087084740782
23559900 14 17346310536115968938
245318 6 17750530635353884076
268830 7 17968642883201756554
2838139 119 18409724032899193837
3004659 81 18272931601413800034
3472631 163 18412263943155657870
38570 142 18187655682438526698
393628 194 17682683170814535540
4058900 60 18198067984918981915
5104073 3 17603857957931184634
59682541 52 15841270333591701021
633830 44 18335132129295552898
6438161 24 9294992550216528513
6898599 12 18270676605595801415
7062679 6 18410572873129513315
7808743 9 18412538821526916043

> <PUBCHEM_SHAPE_MULTIPOLES>
453.26
18.07
3.31
1.1
0.46
1.43
-0.03
12.27
3.01
0.55
0.5
-1.2
-0.36
-1.67

> <PUBCHEM_SHAPE_SELFOVERLAP>
957.535

> <PUBCHEM_SHAPE_VOLUME>
256.4

> <PUBCHEM_COORDINATE_TYPE>
2
5
10

$$$$
87405750
  -OEChem-05102415093D

 36 38  0     0  0  0  0  0  0999 V2000
    6.6957   -2.5195   -1.6517 Cl  0  0  0  0  0  0  0  0  0  0  0  0
   -2.0793    2.6887   -1.4085 S   0  0  0  0  0  0  0  0  0  0  0  0
    0.6984    0.1269    1.3566 O   0  0  0  0  0  0  0  0  0  0  0  0
    2.2023    1.7870    0.7836 N   0  0  0  0  0  0  0  0  0  0  0  0
    0.0703    1.8836   -0.0683 N   0  0  0  0  0  0  0  0  0  0  0  0
   -1.9911    0.5670    0.0657 N   0  0  0  0  0  0  0  0  0  0  0  0
   -6.2281   -2.2336    0.4068 N   0  0  0  0  0  0  0  0  0  0  0  0
    3.3159    1.2754    1.5417 C   0  0  0  0  0  0  0  0  0  0  0  0
    4.1565    0.3328    0.7487 C   0  0  0  0  0  0  0  0  0  0  0  0
   -3.2637    0.6551   -0.4642 C   0  0  0  0  0  0  0  0  0  0  0  0
    3.8681   -1.0320    0.7545 C   0  0  0  0  0  0  0  0  0  0  0  0
    5.2307    0.8155    0.0012 C   0  0  0  0  0  0  0  0  0  0  0  0
   -4.2690   -0.3245   -0.1688 C   0  0  0  0  0  0  0  0  0  0  0  0
   -1.2804    1.5859   -0.3642 C   0  0  0  0  0  0  0  0  0  0  0  0
    0.9490    1.1629    0.7453 C   0  0  0  0  0  0  0  0  0  0  0  0
    4.6540   -1.9141    0.0130 C   0  0  0  0  0  0  0  0  0  0  0  0
    6.0167   -0.0665   -0.7403 C   0  0  0  0  0  0  0  0  0  0  0  0
   -3.5006    1.7366   -1.2865 C   0  0  0  0  0  0  0  0  0  0  0  0
    5.7283   -1.4312   -0.7344 C   0  0  0  0  0  0  0  0  0  0  0  0
   -5.6115    0.0371   -0.1492 C   0  0  0  0  0  0  0  0  0  0  0  0
   -3.9050   -1.6395    0.0990 C   0  0  0  0  0  0  0  0  0  0  0  0
   -6.5438   -0.9459    0.1415 C   0  0  0  0  0  0  0  0  0  0  0  0
   -4.9135   -2.5476    0.3784 C   0  0  0  0  0  0  0  0  0  0  0  0
    2.9438    0.7860    2.4498 H   0  0  0  0  0  0  0  0  0  0  0  0
    3.9087    2.1360    1.8723 H   0  0  0  0  0  0  0  0  0  0  0  0
    2.3424    2.6290    0.2337 H   0  0  0  0  0  0  0  0  0  0  0  0
    3.0371   -1.4235    1.3347 H   0  0  0  0  0  0  0  0  0  0  0  0
    5.4644    1.8768   -0.0132 H   0  0  0  0  0  0  0  0  0  0  0  0
    0.4200    2.7279   -0.5127 H   0  0  0  0  0  0  0  0  0  0  0  0
    4.4178   -2.9750    0.0271 H   0  0  0  0  0  0  0  0  0  0  0  0
    6.8501    0.3239   -1.3188 H   0  0  0  0  0  0  0  0  0  0  0  0
   -4.3948    2.0202   -1.8242 H   0  0  0  0  0  0  0  0  0  0  0  0
   -5.9554    1.0494   -0.3335 H   0  0  0  0  0  0  0  0  0  0  0  0
   -2.8708   -1.9684    0.0906 H   0  0  0  0  0  0  0  0  0  0  0  0
   -7.6034   -0.7148    0.1735 H   0  0  0  0  0  0  0  0  0  0  0  0
   -4.6824   -3.5858    0.5929 H   0  0  0  0  0  0  0  0  0  0  0  0
  1 19  1  0  0  0  0
  2 14  1  0  0  0  0
  2 18  1  0  0  0  0
  3 15  2  0  0  0  0
  4  8  1  0  0  0  0
  4 15  1  0  0  0  0
  4 26  1  0  0  0  0
  5 14  1  0  0  0  0
  5 15  1  0  0  0  0
  5 29  1  0  0  0  0
  6 10  1  0  0  0  0
  6 14  2  0  0  0  0
  7 22  2  0  0  0  0
  7 23  1  0  0  0  0
  8  9  1  0  0  0  0
  8 24  1  0  0  0  0
  8 25  1  0  0  0  0
  9 11  2  0  0  0  0
  9 12  1  0  0  0  0
 10 13  1  0  0  0  0
 10 18  2  0  0  0  0
 11 16  1  0  0  0  0
 11 27  1  0  0  0  0
 12 17  2  0  0  0  0
 12 28  1  0  0  0  0
 13 20  2  0  0  0  0
 13 21  1  0  0  0  0
 16 19  2  0  0  0  0
 16 30  1  0  0  0  0
 17 19  1  0  0  0  0
 17 31  1  0  0  0  0
 18 32  1  0  0  0  0
 20 22  1  0  0  0  0
 20 33  1  0  0  0  0
 21 23  2  0  0  0  0
 21 34  1  0  0  0  0
 22 35  1  0  0  0  0
 23 36  1  0  0  0  0
M  END
> <PUBCHEM_COMPOUND_CID>
87405750

> <PUBCHEM_CONFORMER_RMSD>
0.8

> <PUBCHEM_CONFORMER_DIVERSEORDER>
1
22
9
55
36
61
54
59
45
14
43
7
47
28
41
49
21
51
19
50
15
18
39
2
35
58
11
62
17
27
20
42
5
38
53
6
4
48
16
33
8
12
44
32
24
30
46
10
56
13
34
25
57
26
63
40
23
52
37
60
31
3
29

> <PUBCHEM_MMFF94_PARTIAL_CHARGES>
34
1 -0.18
10 0.17
11 -0.15
12 -0.15
13 0.05
14 0.44
15 0.69
16 -0.15
17 -0.15
18 -0.11
19 0.18
2 -0.08
20 -0.15
21 -0.15
22 0.16
23 0.16
26 0.37
27 0.15
28 0.15
29 0.37
3 -0.57
30 0.15
31 0.15
32 0.15
33 0.15
34 0.15
35 0.15
36 0.15
4 -0.73
5 -0.49
6 -0.57
7 -0.62
8 0.44
9 -0.14

> <PUBCHEM_EFFECTIVE_ROTOR_COUNT>
6

> <PUBCHEM_PHARMACOPHORE_FEATURES>
7
1 3 acceptor
1 4 donor
1 5 donor
1 7 acceptor
5 2 6 10 14 18 rings
6 7 13 20 21 22 23 rings
6 9 11 12 16 17 19 rings

> <PUBCHEM_HEAVY_ATOM_COUNT>
23

> <PUBCHEM_ATOM_DEF_STEREO_COUNT>
0

> <PUBCHEM_ATOM_UDEF_STEREO_COUNT>
0

> <PUBCHEM_BOND_DEF_STEREO_COUNT>
0

> <PUBCHEM_BOND_UDEF_STEREO_COUNT>
0

> <PUBCHEM_ISOTOPIC_ATOM_COUNT>
0

> <PUBCHEM_COMPONENT_COUNT>
1

> <PUBCHEM_CACTVS_TAUTO_COUNT>
5

> <PUBCHEM_CONFORMER_ID>
0535B4B600000001

> <PUBCHEM_MMFF94_ENERGY>
48.5963

> <PUBCHEM_FEATURE_SELFOVERLAP>
35.573

> <PUBCHEM_SHAPE_FINGERPRINT>
10692045 39 12247418773153136780
11056379 131 18187641358854723381
11089746 13 9943812183395930840
11393246 34 18272363192393409199
11524674 6 17346314921388497631
117089 54 17629498393303866686
12107183 9 11671792537754198460
12342043 65 18343580746156353320
12596602 18 15194994011687157967
12616971 3 15769768066030232792
12633257 1 15841546422584885741
13073987 5 17917992763651247040
13402501 40 18412546521939443831
13533116 47 17846214505416442664
13673619 4 18413389834472767016
13690498 29 18186800253670197021
13757389 114 17751919121493905581
13782708 43 18201714081018563831
13914758 101 16702016449456734513
13955234 65 17702653506109760024
14123256 34 18114748235011405187
14216079 64 18410006672382052399
14251732 14 18113057138334521420
14251764 30 18272652367555033729
14347332 77 18114453479215145281
14420673 8 18411985758899498451
14556957 393 15357693055138197583
14617045 38 18410012143331702082
14767858 380 16588023523945852776
14951699 99 10879692318127145178
15131766 46 15981979436857187873
15352257 5 18413672413261366806
15510800 12 17702392750266366302
15537594 2 17775278396301440148
18335252 98 18412829118724817500
18608769 82 18338794619728272682
18643901 69 18335426738213046671
193927 3 17632015244080506788
195137 95 8141800539837222054
20157964 124 11674871187191185888
20621476 21 18412547612881891855
21095086 4 18341623615417188230
21267235 1 18114181995461019219
21623969 137 17846781802040206702
21682296 61 18202849837791078159
22765269 38 11386371452217888924
2297311 6 18261109677903150429
2303208 19 18342173366909091872
23522609 53 18195277518159124945
23559900 14 18336536192574698149
2748736 6 8430319017314198087
2838139 119 8502382109189352747
3004659 81 17822288028415322485
3089732 80 18411981360082996926
33382 64 18201721760446294000
335352 9 18186792605435580245
34797466 226 18186524332439894140
437795 70 18042690674885550787
437815 12 18342173393301388001
439807 62 18335702702609955906
4435113 14 18341628026369758750
46194498 28 18334572482324989316
465052 167 17989490714954990572
484989 97 18411709772970548598
497634 4 18410294679513689189
5104073 3 18130779024007409112
54039377 194 17845942819567219526
59755656 215 18334006177738008107
59755656 520 18195806259452329553
6898599 12 17532360968689442237
7237137 82 17240751866446209717
8217 86 18334015003447083704
8863177 126 18343298197511522066
999808 66 18131352973377200318

> <PUBCHEM_SHAPE_MULTIPOLES>
453.26
19.18
2.93
1.26
4.48
0.51
0.13
14.62
3.67
-1.23
0.68
1.31
-0.24
3.23

> <PUBCHEM_SHAPE_SELFOVERLAP>
957.609

> <PUBCHEM_SHAPE_VOLUME>
256.8

> <PUBCHEM_COORDINATE_TYPE>
2
5
10

$$$$
87406443
  -OEChem-05102415093D

 39 41  0     0  0  0  0  0  0999 V2000
    2.0509    2.8996   -1.0292 S   0  0  0  0  0  0  0  0  0  0  0  0
   -0.8258   -0.0109    1.2463 O   0  0  0  0  0  0  0  0  0  0  0  0
   -2.3069    1.7225    0.8618 N   0  0  0  0  0  0  0  0  0  0  0  0
   -0.1458    1.9256    0.1070 N   0  0  0  0  0  0  0  0  0  0  0  0
    1.9083    0.5911    0.1253 N   0  0  0  0  0  0  0  0  0  0  0  0
    6.1271   -2.2559    0.2122 N   0  0  0  0  0  0  0  0  0  0  0  0
   -4.2600    0.2995    0.5532 C   0  0  0  0  0  0  0  0  0  0  0  0
   -3.4469    1.1156    1.5006 C   0  0  0  0  0  0  0  0  0  0  0  0
   -4.1876   -1.0930    0.5919 C   0  0  0  0  0  0  0  0  0  0  0  0
   -4.9484   -1.8560   -0.2940 C   0  0  0  0  0  0  0  0  0  0  0  0
   -5.0934    0.9290   -0.3716 C   0  0  0  0  0  0  0  0  0  0  0  0
   -5.7818   -1.2265   -1.2186 C   0  0  0  0  0  0  0  0  0  0  0  0
   -5.8544    0.1660   -1.2573 C   0  0  0  0  0  0  0  0  0  0  0  0
    3.1991    0.7461   -0.3411 C   0  0  0  0  0  0  0  0  0  0  0  0
   -4.8712   -3.3447   -0.2526 C   0  0  0  0  0  0  0  0  0  0  0  0
   -1.0535    1.1025    0.7793 C   0  0  0  0  0  0  0  0  0  0  0  0
    4.1921   -0.2720   -0.1534 C   0  0  0  0  0  0  0  0  0  0  0  0
    1.2142    1.6647   -0.1808 C   0  0  0  0  0  0  0  0  0  0  0  0
    3.4661    1.9317   -0.9930 C   0  0  0  0  0  0  0  0  0  0  0  0
    5.5336    0.0746   -0.0365 C   0  0  0  0  0  0  0  0  0  0  0  0
    3.8170   -1.6093   -0.0877 C   0  0  0  0  0  0  0  0  0  0  0  0
    6.4536   -0.9457    0.1434 C   0  0  0  0  0  0  0  0  0  0  0  0
    4.8138   -2.5543    0.0947 C   0  0  0  0  0  0  0  0  0  0  0  0
   -4.0582    1.9231    1.9200 H   0  0  0  0  0  0  0  0  0  0  0  0
   -3.1034    0.5098    2.3474 H   0  0  0  0  0  0  0  0  0  0  0  0
   -3.5363   -1.5861    1.3097 H   0  0  0  0  0  0  0  0  0  0  0  0
   -5.1583    2.0132   -0.4115 H   0  0  0  0  0  0  0  0  0  0  0  0
   -2.4260    2.6352    0.4332 H   0  0  0  0  0  0  0  0  0  0  0  0
   -6.3783   -1.8095   -1.9154 H   0  0  0  0  0  0  0  0  0  0  0  0
   -6.5030    0.6562   -1.9774 H   0  0  0  0  0  0  0  0  0  0  0  0
   -5.8037   -3.8005   -0.6023 H   0  0  0  0  0  0  0  0  0  0  0  0
   -4.7039   -3.7019    0.7692 H   0  0  0  0  0  0  0  0  0  0  0  0
   -4.0511   -3.6959   -0.8868 H   0  0  0  0  0  0  0  0  0  0  0  0
   -0.4787    2.8264   -0.2254 H   0  0  0  0  0  0  0  0  0  0  0  0
    4.3792    2.2832   -1.4532 H   0  0  0  0  0  0  0  0  0  0  0  0
    5.8852    1.1005   -0.0634 H   0  0  0  0  0  0  0  0  0  0  0  0
    2.7832   -1.9271   -0.1781 H   0  0  0  0  0  0  0  0  0  0  0  0
    7.5119   -0.7283    0.2441 H   0  0  0  0  0  0  0  0  0  0  0  0
    4.5738   -3.6110    0.1517 H   0  0  0  0  0  0  0  0  0  0  0  0
  1 18  1  0  0  0  0
  1 19  1  0  0  0  0
  2 16  2  0  0  0  0
  3  8  1  0  0  0  0
  3 16  1  0  0  0  0
  3 28  1  0  0  0  0
  4 16  1  0  0  0  0
  4 18  1  0  0  0  0
  4 34  1  0  0  0  0
  5 14  1  0  0  0  0
  5 18  2  0  0  0  0
  6 22  2  0  0  0  0
  6 23  1  0  0  0  0
  7  8  1  0  0  0  0
  7  9  1  0  0  0  0
  7 11  2  0  0  0  0
  8 24  1  0  0  0  0
  8 25  1  0  0  0  0
  9 10  2  0  0  0  0
  9 26  1  0  0  0  0
 10 12  1  0  0  0  0
 10 15  1  0  0  0  0
 11 13  1  0  0  0  0
 11 27  1  0  0  0  0
 12 13  2  0  0  0  0
 12 29  1  0  0  0  0
 13 30  1  0  0  0  0
 14 17  1  0  0  0  0
 14 19  2  0  0  0  0
 15 31  1  0  0  0  0
 15 32  1  0  0  0  0
 15 33  1  0  0  0  0
 17 20  2  0  0  0  0
 17 21  1  0  0  0  0
 19 35  1  0  0  0  0
 20 22  1  0  0  0  0
 20 36  1  0  0  0  0
 21 23  2  0  0  0  0
 21 37  1  0  0  0  0
 22 38  1  0  0  0  0
 23 39  1  0  0  0  0
M  END
> <PUBCHEM_COMPOUND_CID>
87406443

> <PUBCHEM_CONFORMER_RMSD>
0.8

> <PUBCHEM_CONFORMER_DIVERSEORDER>
1
82
78
133
136
43
16
50
59
147
58
140
138
29
9
86
53
46
22
39
96
56
100
44
144
106
118
42
84
83
143
64
72
75
54
20
41
21
67
10
68
132
109
38
71
3
116
104
93
55
129
63
35
128
28
111
60
27
105
88
117
52
126
85
74
141
124
57
113
14
62
13
40
49
137
125
66
31
17
87
91
11
115
130
65
123
15
25
51
36
7
79
102
120
18
6
112
110
70
4
98
101
131
37
127
81
92
47
122
94
45
99
108
32
24
148
23
103
145
48
97
19
146
114
77
119
134
5
135
33
34
2
89
80
90
142
121
69
139
76
26
107
8
95
30
61
12
73

> <PUBCHEM_MMFF94_PARTIAL_CHARGES>
34
1 -0.08
10 -0.14
11 -0.15
12 -0.15
13 -0.15
14 0.17
15 0.14
16 0.69
17 0.05
18 0.44
19 -0.11
2 -0.57
20 -0.15
21 -0.15
22 0.16
23 0.16
26 0.15
27 0.15
28 0.37
29 0.15
3 -0.73
30 0.15
34 0.37
35 0.15
36 0.15
37 0.15
38 0.15
39 0.15
4 -0.49
5 -0.57
6 -0.62
7 -0.14
8 0.44
9 -0.15

> <PUBCHEM_EFFECTIVE_ROTOR_COUNT>
6

> <PUBCHEM_PHARMACOPHORE_FEATURES>
7
1 2 acceptor
1 3 donor
1 4 donor
1 6 acceptor
5 1 5 14 18 19 rings
6 6 17 20 21 22 23 rings
6 7 9 10 11 12 13 rings

> <PUBCHEM_HEAVY_ATOM_COUNT>
23

> <PUBCHEM_ATOM_DEF_STEREO_COUNT>
0

> <PUBCHEM_ATOM_UDEF_STEREO_COUNT>
0

> <PUBCHEM_BOND_DEF_STEREO_COUNT>
0

> <PUBCHEM_BOND_UDEF_STEREO_COUNT>
0

> <PUBCHEM_ISOTOPIC_ATOM_COUNT>
0

> <PUBCHEM_COMPONENT_COUNT>
1

> <PUBCHEM_CACTVS_TAUTO_COUNT>
5

> <PUBCHEM_CONFORMER_ID>
0535B76B00000001

> <PUBCHEM_MMFF94_ENERGY>
50.2738

> <PUBCHEM_FEATURE_SELFOVERLAP>
35.573

> <PUBCHEM_SHAPE_FINGERPRINT>
105312 117 15285359535410988291
10571361 74 18341326708649597046
10622 236 18198893881054490735
10670039 82 14779537959779637189
11315621 136 18262518216232347579
11796584 16 18202008698384196877
12342043 65 16663212600510283953
12555020 224 18113622282995158475
12596602 18 17489588931492054162
12616971 3 18337971038137402009
12645989 146 18122350078197505130
12839892 36 17703514315590454975
13533116 47 18342175592187707944
13761468 95 17243563206347413677
13885169 86 11383244449955363042
13911852 28 18191023401008421554
14211702 104 18201446873570153038
14251751 18 18202563994595088354
1454969 45 18335709352015616628
14848178 5 18343017796218366339
15183329 4 17458337524932350345
15188451 53 17846493716797590665
15250474 111 18341619225986303207
15728490 51 18272367599377585270
16126227 98 10231165171371430170
17857418 61 18341896276993575296
18222031 100 18333448716948009184
20028762 73 18342455903344735174
20567600 247 18341326764346177311
20621476 91 15482663602870608957
21315764 119 18187638116501983717
21728266 224 17988927751768826113
22061861 79 17967813851180855077
22393880 68 17967803977604857985
23559900 14 18341884243118120329
25122255 55 18343308049966084743
2838139 119 8142075447571182906
3004659 81 18260824916717061824
3014063 24 18342453712557245814
312425 54 17273709658357757754
314194 84 18335997406238783008
339767 52 18272928319393959263
373842 8 18201158754363977502
38570 142 9151172099538524088
3882209 13 16593058003491838386
4015057 19 18187938325330123561
439807 62 18338800143373109791
445580 204 8069735292109426422
5104073 3 17632304522754468801
5207 123 18333450924181209188
531348 171 18260828155834708877
5326457 24 18411982494033127247
559249 180 18272088271816093609
60123966 16 16877945000842686172
636775 72 8141211223185565694
6431902 208 18412828001437877659
6437827 68 18411417340994072391
7495541 125 17346595292210323424
7808743 9 7853567998531291161
7970288 3 18265331708107091446
96874 4 18271516555112228783

> <PUBCHEM_SHAPE_MULTIPOLES>
451.39
18.05
3.2
1.1
0.21
1.07
-0.03
12.16
3.02
0.91
0.51
-1.22
-0.35
-1.66

> <PUBCHEM_SHAPE_SELFOVERLAP>
960.646

> <PUBCHEM_SHAPE_VOLUME>
253.1

> <PUBCHEM_COORDINATE_TYPE>
2
5
10

$$$$
87405534
  -OEChem-05102415093D

 39 41  0     0  0  0  0  0  0999 V2000
   -1.7632    2.6463    0.6784 S   0  0  0  0  0  0  0  0  0  0  0  0
    0.3667   -1.4160   -0.2624 O   0  0  0  0  0  0  0  0  0  0  0  0
    2.2408   -0.1015    0.0641 N   0  0  0  0  0  0  0  0  0  0  0  0
    0.1634    0.8603    0.2736 N   0  0  0  0  0  0  0  0  0  0  0  0
   -2.1778    0.1637    0.0891 N   0  0  0  0  0  0  0  0  0  0  0  0
   -7.0121   -1.3784   -0.3151 N   0  0  0  0  0  0  0  0  0  0  0  0
    4.6147   -0.6465    0.0158 C   0  0  0  0  0  0  0  0  0  0  0  0
    3.2158   -1.1348   -0.1717 C   0  0  0  0  0  0  0  0  0  0  0  0
    5.2279    0.1595   -0.9431 C   0  0  0  0  0  0  0  0  0  0  0  0
    5.3087   -1.0077    1.1705 C   0  0  0  0  0  0  0  0  0  0  0  0
    6.5354    0.6043   -0.7475 C   0  0  0  0  0  0  0  0  0  0  0  0
    4.5049    0.5593   -2.1873 C   0  0  0  0  0  0  0  0  0  0  0  0
    6.6163   -0.5630    1.3663 C   0  0  0  0  0  0  0  0  0  0  0  0
    7.2295    0.2431    0.4073 C   0  0  0  0  0  0  0  0  0  0  0  0
    0.8584   -0.3211    0.0005 C   0  0  0  0  0  0  0  0  0  0  0  0
   -3.4102    0.7731    0.2220 C   0  0  0  0  0  0  0  0  0  0  0  0
   -4.6317    0.0435    0.0398 C   0  0  0  0  0  0  0  0  0  0  0  0
   -1.2371    1.0555    0.3078 C   0  0  0  0  0  0  0  0  0  0  0  0
   -3.3879    2.1152    0.5388 C   0  0  0  0  0  0  0  0  0  0  0  0
   -5.7673    0.6907   -0.4345 C   0  0  0  0  0  0  0  0  0  0  0  0
   -4.6849   -1.3139    0.3368 C   0  0  0  0  0  0  0  0  0  0  0  0
   -6.9221   -0.0583   -0.5930 C   0  0  0  0  0  0  0  0  0  0  0  0
   -5.8882   -1.9734    0.1437 C   0  0  0  0  0  0  0  0  0  0  0  0
    3.0618   -1.5435   -1.1768 H   0  0  0  0  0  0  0  0  0  0  0  0
    2.9918   -1.9603    0.5156 H   0  0  0  0  0  0  0  0  0  0  0  0
    4.8445   -1.6334    1.9283 H   0  0  0  0  0  0  0  0  0  0  0  0
    2.5628    0.8343    0.2935 H   0  0  0  0  0  0  0  0  0  0  0  0
    7.0284    1.2332   -1.4841 H   0  0  0  0  0  0  0  0  0  0  0  0
    5.1436    1.1569   -2.8477 H   0  0  0  0  0  0  0  0  0  0  0  0
    3.6296    1.1725   -1.9527 H   0  0  0  0  0  0  0  0  0  0  0  0
    4.1965   -0.3205   -2.7607 H   0  0  0  0  0  0  0  0  0  0  0  0
    7.1567   -0.8438    2.2655 H   0  0  0  0  0  0  0  0  0  0  0  0
    8.2475    0.5895    0.5599 H   0  0  0  0  0  0  0  0  0  0  0  0
    0.7070    1.6949    0.4751 H   0  0  0  0  0  0  0  0  0  0  0  0
   -4.2034    2.8049    0.7066 H   0  0  0  0  0  0  0  0  0  0  0  0
   -5.7830    1.7428   -0.6987 H   0  0  0  0  0  0  0  0  0  0  0  0
   -3.8257   -1.8596    0.7133 H   0  0  0  0  0  0  0  0  0  0  0  0
   -7.8340    0.3981   -0.9637 H   0  0  0  0  0  0  0  0  0  0  0  0
   -5.9825   -3.0321    0.3615 H   0  0  0  0  0  0  0  0  0  0  0  0
  1 18  1  0  0  0  0
  1 19  1  0  0  0  0
  2 15  2  0  0  0  0
  3  8  1  0  0  0  0
  3 15  1  0  0  0  0
  3 27  1  0  0  0  0
  4 15  1  0  0  0  0
  4 18  1  0  0  0  0
  4 34  1  0  0  0  0
  5 16  1  0  0  0  0
  5 18  2  0  0  0  0
  6 22  2  0  0  0  0
  6 23  1  0  0  0  0
  7  8  1  0  0  0  0
  7  9  1  0  0  0  0
  7 10  2  0  0  0  0
  8 24  1  0  0  0  0
  8 25  1  0  0  0  0
  9 11  2  0  0  0  0
  9 12  1  0  0  0  0
 10 13  1  0  0  0  0
 10 26  1  0  0  0  0
 11 14  1  0  0  0  0
 11 28  1  0  0  0  0
 12 29  1  0  0  0  0
 12 30  1  0  0  0  0
 12 31  1  0  0  0  0
 13 14  2  0  0  0  0
 13 32  1  0  0  0  0
 14 33  1  0  0  0  0
 16 17  1  0  0  0  0
 16 19  2  0  0  0  0
 17 20  2  0  0  0  0
 17 21  1  0  0  0  0
 19 35  1  0  0  0  0
 20 22  1  0  0  0  0
 20 36  1  0  0  0  0
 21 23  2  0  0  0  0
 21 37  1  0  0  0  0
 22 38  1  0  0  0  0
 23 39  1  0  0  0  0
M  END
> <PUBCHEM_COMPOUND_CID>
87405534

> <PUBCHEM_CONFORMER_RMSD>
0.8

> <PUBCHEM_CONFORMER_DIVERSEORDER>
1
124
123
108
30
24
55
83
103
135
89
50
38
64
44
137
117
63
98
121
101
99
20
67
77
49
13
47
110
22
40
62
66
42
118
12
32
122
91
84
45
92
88
133
105
17
100
14
73
39
95
26
51
131
94
10
21
107
15
68
104
128
126
57
36
41
116
31
134
70
86
129
82
25
109
59
78
61
113
80
3
28
72
37
76
19
85
18
120
35
46
48
23
97
4
71
53
65
119
79
56
112
111
75
125
54
69
102
33
90
9
52
127
114
60
5
34
43
87
16
96
132
6
58
74
11
27
136
93
130
106
7
8
81
2
29
115

> <PUBCHEM_MMFF94_PARTIAL_CHARGES>
34
1 -0.08
10 -0.15
11 -0.15
12 0.14
13 -0.15
14 -0.15
15 0.69
16 0.17
17 0.05
18 0.44
19 -0.11
2 -0.57
20 -0.15
21 -0.15
22 0.16
23 0.16
26 0.15
27 0.37
28 0.15
3 -0.73
32 0.15
33 0.15
34 0.37
35 0.15
36 0.15
37 0.15
38 0.15
39 0.15
4 -0.49
5 -0.57
6 -0.62
7 -0.14
8 0.44
9 -0.14

> <PUBCHEM_EFFECTIVE_ROTOR_COUNT>
6

> <PUBCHEM_PHARMACOPHORE_FEATURES>
7
1 2 acceptor
1 3 donor
1 4 donor
1 6 acceptor
5 1 5 16 18 19 rings
6 6 17 20 21 22 23 rings
6 7 9 10 11 13 14 rings

> <PUBCHEM_HEAVY_ATOM_COUNT>
23

> <PUBCHEM_ATOM_DEF_STEREO_COUNT>
0

> <PUBCHEM_ATOM_UDEF_STEREO_COUNT>
0

> <PUBCHEM_BOND_DEF_STEREO_COUNT>
0

> <PUBCHEM_BOND_UDEF_STEREO_COUNT>
0

> <PUBCHEM_ISOTOPIC_ATOM_COUNT>
0

> <PUBCHEM_COMPONENT_COUNT>
1

> <PUBCHEM_CACTVS_TAUTO_COUNT>
5

> <PUBCHEM_CONFORMER_ID>
0535B3DE00000001

> <PUBCHEM_MMFF94_ENERGY>
52.4764

> <PUBCHEM_FEATURE_SELFOVERLAP>
35.573

> <PUBCHEM_SHAPE_FINGERPRINT>
10 15 18059846290857922706
10595046 47 18335422327271148984
10968037 39 18411700985382304879
11089746 13 16008750212540641780
11315181 36 18411982469028221041
11524674 6 16487253288109148903
11646440 116 16845851296215834264
11719270 70 18409163290638804778
11724838 91 18260547832177985942
11963148 33 18343577456170071103
12166972 35 17967816071737625852
12236239 1 18113336397276918938
12516196 113 17918274251037709265
12730499 353 16630809890250509198
12916748 109 18131633361969576352
13073987 5 17845654742623906810
13288520 33 18341894104731854785
13533116 47 17167856427642094098
13631057 29 18412542111677275035
13878862 14 15864353610124098422
13914758 101 16298379128543485477
14123256 10 18413389838772664615
14251764 18 18040436603481622612
14461889 52 18201716254620474090
14674994 50 17274259599214689439
14933364 13 12895353300204946890
15183329 4 10015581679490567944
15301273 46 16343709807482883249
15338160 23 16486705658414855489
15419008 47 17632854226722982704
1577012 14 18187936036608121196
15840311 113 18114464553186817852
15927050 60 17552634073056211324
1768 4 16486674975400237562
17844677 252 15841275861304424808
17857418 61 18259988171373155716
18335252 98 17918278653948951806
19377110 9 18336836294597095240
19427546 20 18338237060207299341
20157964 124 17095245817815095786
21150785 3 18260831522740818372
21267235 1 18341334483488870739
21344244 78 17895737527983241280
21365058 27 15195286447240794869
21623969 137 16558754498855453918
22149856 69 17988096503592610699
22224240 67 16415474965460566015
2303208 19 16988571164859174764
23081809 10 17968104096649848876
23198884 109 16153425044004107725
23559900 14 18337103579577385697
23569917 315 18335707101010759274
249057 25 18040725740485466908
2838139 119 15502093051385766925
3004659 81 18259980505241634865
3009799 131 15140679185014558804
329604 57 18411141337573250249
335352 9 18412821379758519077
34797466 226 17418097637646009812
3633792 109 16805876304055425355
4015057 19 16733280030782561965
4325135 7 18407761434687305222
4938544 92 16845022217393833105
504579 68 17749122088613879334
5104073 3 17844813577073221706
5283156 175 18187082841095905083
5486654 2 18413109463344914207
59682541 35 17988636437248582050
67856867 119 18261679267327729748
8988823 20 16153707622792707674
9862886 166 18333734641378976187

> <PUBCHEM_SHAPE_MULTIPOLES>
451.39
22.45
1.87
1.13
5.01
0.62
-0.32
-5.8
-0.98
-2.8
0.39
1.99
0.12
-1.14

> <PUBCHEM_SHAPE_SELFOVERLAP>
961.404

> <PUBCHEM_SHAPE_VOLUME>
252.9

> <PUBCHEM_COORDINATE_TYPE>
2
5
10

$$$$
87405083
  -OEChem-05102415093D

 39 41  0     0  0  0  0  0  0999 V2000
   -2.0748   -2.7383   -1.3032 S   0  0  0  0  0  0  0  0  0  0  0  0
    0.7065   -0.0668    1.3523 O   0  0  0  0  0  0  0  0  0  0  0  0
    2.2114   -1.7458    0.8403 N   0  0  0  0  0  0  0  0  0  0  0  0
    0.0773   -1.8782   -0.0017 N   0  0  0  0  0  0  0  0  0  0  0  0
   -1.9857   -0.5604    0.0865 N   0  0  0  0  0  0  0  0  0  0  0  0
   -6.2254    2.2465    0.3276 N   0  0  0  0  0  0  0  0  0  0  0  0
    4.1633   -0.2913    0.7440 C   0  0  0  0  0  0  0  0  0  0  0  0
    3.3260   -1.2036    1.5751 C   0  0  0  0  0  0  0  0  0  0  0  0
    5.0305   -0.8191   -0.2126 C   0  0  0  0  0  0  0  0  0  0  0  0
    4.0815    1.0893    0.9253 C   0  0  0  0  0  0  0  0  0  0  0  0
    5.7340    1.4145   -0.8068 C   0  0  0  0  0  0  0  0  0  0  0  0
    5.8159    0.0339   -0.9880 C   0  0  0  0  0  0  0  0  0  0  0  0
    4.8670    1.9422    0.1500 C   0  0  0  0  0  0  0  0  0  0  0  0
   -3.2599   -0.6715   -0.4353 C   0  0  0  0  0  0  0  0  0  0  0  0
   -4.2656    0.3180   -0.1765 C   0  0  0  0  0  0  0  0  0  0  0  0
    0.9570   -1.1254    0.7810 C   0  0  0  0  0  0  0  0  0  0  0  0
    6.5745    2.3261   -1.6358 C   0  0  0  0  0  0  0  0  0  0  0  0
   -1.2746   -1.5942   -0.3055 C   0  0  0  0  0  0  0  0  0  0  0  0
   -3.4973   -1.7847   -1.2139 C   0  0  0  0  0  0  0  0  0  0  0  0
   -5.6077   -0.0437   -0.1398 C   0  0  0  0  0  0  0  0  0  0  0  0
   -3.9022    1.6429    0.0386 C   0  0  0  0  0  0  0  0  0  0  0  0
   -6.5402    0.9491    0.1139 C   0  0  0  0  0  0  0  0  0  0  0  0
   -4.9112    2.5604    0.2844 C   0  0  0  0  0  0  0  0  0  0  0  0
    3.9290   -2.0477    1.9293 H   0  0  0  0  0  0  0  0  0  0  0  0
    2.9510   -0.6893    2.4678 H   0  0  0  0  0  0  0  0  0  0  0  0
    5.1030   -1.8931   -0.3628 H   0  0  0  0  0  0  0  0  0  0  0  0
    3.4094    1.5146    1.6659 H   0  0  0  0  0  0  0  0  0  0  0  0
    6.4865   -0.3892   -1.7313 H   0  0  0  0  0  0  0  0  0  0  0  0
    4.7930    3.0162    0.2992 H   0  0  0  0  0  0  0  0  0  0  0  0
    2.3507   -2.6091    0.3242 H   0  0  0  0  0  0  0  0  0  0  0  0
    7.5210    1.8489   -1.9117 H   0  0  0  0  0  0  0  0  0  0  0  0
    6.8250    3.2405   -1.0873 H   0  0  0  0  0  0  0  0  0  0  0  0
    6.0403    2.6010   -2.5506 H   0  0  0  0  0  0  0  0  0  0  0  0
    0.4271   -2.7387   -0.4139 H   0  0  0  0  0  0  0  0  0  0  0  0
   -4.3926   -2.0905   -1.7374 H   0  0  0  0  0  0  0  0  0  0  0  0
   -5.9509   -1.0627   -0.2835 H   0  0  0  0  0  0  0  0  0  0  0  0
   -2.8684    1.9722    0.0151 H   0  0  0  0  0  0  0  0  0  0  0  0
   -7.5996    0.7185    0.1571 H   0  0  0  0  0  0  0  0  0  0  0  0
   -4.6806    3.6064    0.4575 H   0  0  0  0  0  0  0  0  0  0  0  0
  1 18  1  0  0  0  0
  1 19  1  0  0  0  0
  2 16  2  0  0  0  0
  3  8  1  0  0  0  0
  3 16  1  0  0  0  0
  3 30  1  0  0  0  0
  4 16  1  0  0  0  0
  4 18  1  0  0  0  0
  4 34  1  0  0  0  0
  5 14  1  0  0  0  0
  5 18  2  0  0  0  0
  6 22  2  0  0  0  0
  6 23  1  0  0  0  0
  7  8  1  0  0  0  0
  7  9  2  0  0  0  0
  7 10  1  0  0  0  0
  8 24  1  0  0  0  0
  8 25  1  0  0  0  0
  9 12  1  0  0  0  0
  9 26  1  0  0  0  0
 10 13  2  0  0  0  0
 10 27  1  0  0  0  0
 11 12  2  0  0  0  0
 11 13  1  0  0  0  0
 11 17  1  0  0  0  0
 12 28  1  0  0  0  0
 13 29  1  0  0  0  0
 14 15  1  0  0  0  0
 14 19  2  0  0  0  0
 15 20  2  0  0  0  0
 15 21  1  0  0  0  0
 17 31  1  0  0  0  0
 17 32  1  0  0  0  0
 17 33  1  0  0  0  0
 19 35  1  0  0  0  0
 20 22  1  0  0  0  0
 20 36  1  0  0  0  0
 21 23  2  0  0  0  0
 21 37  1  0  0  0  0
 22 38  1  0  0  0  0
 23 39  1  0  0  0  0
M  END
> <PUBCHEM_COMPOUND_CID>
87405083

> <PUBCHEM_CONFORMER_RMSD>
0.8

> <PUBCHEM_CONFORMER_DIVERSEORDER>
1
36
40
11
24
6
31
53
56
30
48
27
13
52
9
29
8
14
22
51
16
35
57
54
12
17
41
26
21
50
2
15
39
44
32
18
43
25
58
37
38
45
59
20
49
47
19
33
46
4
42
10
34
55
28
7
5
23
3

> <PUBCHEM_MMFF94_PARTIAL_CHARGES>
34
1 -0.08
10 -0.15
11 -0.14
12 -0.15
13 -0.15
14 0.17
15 0.05
16 0.69
17 0.14
18 0.44
19 -0.11
2 -0.57
20 -0.15
21 -0.15
22 0.16
23 0.16
26 0.15
27 0.15
28 0.15
29 0.15
3 -0.73
30 0.37
34 0.37
35 0.15
36 0.15
37 0.15
38 0.15
39 0.15
4 -0.49
5 -0.57
6 -0.62
7 -0.14
8 0.44
9 -0.15

> <PUBCHEM_EFFECTIVE_ROTOR_COUNT>
6

> <PUBCHEM_PHARMACOPHORE_FEATURES>
7
1 2 acceptor
1 3 donor
1 4 donor
1 6 acceptor
5 1 5 14 18 19 rings
6 6 15 20 21 22 23 rings
6 7 9 10 11 12 13 rings

> <PUBCHEM_HEAVY_ATOM_COUNT>
23

> <PUBCHEM_ATOM_DEF_STEREO_COUNT>
0

> <PUBCHEM_ATOM_UDEF_STEREO_COUNT>
0

> <PUBCHEM_BOND_DEF_STEREO_COUNT>
0

> <PUBCHEM_BOND_UDEF_STEREO_COUNT>
0

> <PUBCHEM_ISOTOPIC_ATOM_COUNT>
0

> <PUBCHEM_COMPONENT_COUNT>
1

> <PUBCHEM_CACTVS_TAUTO_COUNT>
5

> <PUBCHEM_CONFORMER_ID>
0535B21B00000001

> <PUBCHEM_MMFF94_ENERGY>
50.304

> <PUBCHEM_FEATURE_SELFOVERLAP>
35.573

> <PUBCHEM_SHAPE_FINGERPRINT>
10 15 13407081422599787094
10378564 45 17988927760854340294
10554248 39 18195507234790393943
10670039 82 17774447074921207872
10753850 27 10231748999012599455
11056379 131 18199743825033766479
11273773 42 18187931741429601708
11991303 11 17203320157009484455
12390115 104 17917432000147051595
12596602 18 17676204642027957057
12616971 3 18041825251996990570
13690498 29 17701534245526089575
13885169 86 18041569125627129908
13914758 101 12247690361658268563
13955234 65 16950831511095400938
14251751 18 7853853879853920716
14251757 5 18131068259752256355
14251764 75 17896044390025945268
14528608 73 18410570708434334778
1454969 45 18413099560215505063
14790565 3 18412543176444354281
14840074 17 18113900450879089533
14848178 5 10447927269741153144
15183329 4 17346887740654076808
15188451 53 9079122137451492830
15210252 30 18115307899489606612
15575132 122 18334853862648902117
15685185 35 17605853636171669164
16991971 28 17698987811979688335
17349148 13 10807655644294173170
17857418 61 9727631717474468755
17959699 21 18411418427804972826
21298829 104 18261396715179443220
21315763 87 14707209898755992377
21315764 119 18131642166716071222
21774942 28 18340768243638590516
22061861 79 15267341838044810292
2215653 11 16128657457292067814
23559900 14 17059767927339587018
255183 451 16980377866899320167
268830 7 17895460475904843442
3004659 81 18200873981648480602
3472631 163 18412545418227281590
34797466 226 16988273313108698634
3610482 184 18337957886567577830
38570 142 18260556606263675194
393628 194 17680998706237096364
394071 54 16950567726967312292
4058900 60 18199475368371429179
445580 204 18335703897164791228
5104073 3 17240477053053439826
543368 44 18260265295442370781
54583773 228 18408316697868001173
5718773 13 11887410062459704308
5911458 16 18334021596465178156
59682541 52 15554447340929385797
633830 44 18260259759715505058
6438161 24 9222937159438807657
7062679 6 18411979157043829209
7808743 9 18341887490018222707

> <PUBCHEM_SHAPE_MULTIPOLES>
451.39
18.96
2.89
1.27
3.45
0.35
-0.07
14.23
-3.98
-1.65
-0.62
1.62
-0.2
-2.69

> <PUBCHEM_SHAPE_SELFOVERLAP>
960.609

> <PUBCHEM_SHAPE_VOLUME>
253.4

> <PUBCHEM_COORDINATE_TYPE>
2
5
10

$$$$
87405776
  -OEChem-05102415093D

 39 41  0     0  0  0  0  0  0999 V2000
    1.8086   -2.7801   -1.0941 S   0  0  0  0  0  0  0  0  0  0  0  0
   -0.8721    0.2824    1.1407 O   0  0  0  0  0  0  0  0  0  0  0  0
   -2.5365   -1.2881    0.7904 N   0  0  0  0  0  0  0  0  0  0  0  0
   -0.3485   -1.6819    0.0091 N   0  0  0  0  0  0  0  0  0  0  0  0
    1.7868   -0.4789    0.0832 N   0  0  0  0  0  0  0  0  0  0  0  0
    6.1734    2.0953    0.2893 N   0  0  0  0  0  0  0  0  0  0  0  0
   -3.5818   -0.5279    1.4726 C   0  0  0  0  0  0  0  0  0  0  0  0
   -4.3482    0.3489    0.5251 C   0  0  0  0  0  0  0  0  0  0  0  0
   -1.2120   -0.8063    0.6724 C   0  0  0  0  0  0  0  0  0  0  0  0
   -2.9455   -2.5737    0.2393 C   0  0  0  0  0  0  0  0  0  0  0  0
   -5.4868   -0.1426   -0.1133 C   0  0  0  0  0  0  0  0  0  0  0  0
   -3.9218    1.6547    0.2831 C   0  0  0  0  0  0  0  0  0  0  0  0
    1.0336   -1.5038   -0.2485 C   0  0  0  0  0  0  0  0  0  0  0  0
    3.0748   -0.7097   -0.3595 C   0  0  0  0  0  0  0  0  0  0  0  0
   -6.1992    0.6718   -0.9936 C   0  0  0  0  0  0  0  0  0  0  0  0
   -4.6342    2.4693   -0.5971 C   0  0  0  0  0  0  0  0  0  0  0  0
    4.1256    0.2416   -0.1395 C   0  0  0  0  0  0  0  0  0  0  0  0
   -5.7730    1.9778   -1.2355 C   0  0  0  0  0  0  0  0  0  0  0  0
    3.2805   -1.9032   -1.0191 C   0  0  0  0  0  0  0  0  0  0  0  0
    5.4398   -0.1902    0.0014 C   0  0  0  0  0  0  0  0  0  0  0  0
    3.8341    1.5992   -0.0663 C   0  0  0  0  0  0  0  0  0  0  0  0
    6.4182    0.7679    0.2123 C   0  0  0  0  0  0  0  0  0  0  0  0
    4.8843    2.4775    0.1474 C   0  0  0  0  0  0  0  0  0  0  0  0
   -3.1144    0.0981    2.2431 H   0  0  0  0  0  0  0  0  0  0  0  0
   -4.2469   -1.2136    2.0116 H   0  0  0  0  0  0  0  0  0  0  0  0
   -2.3390   -3.3683    0.6846 H   0  0  0  0  0  0  0  0  0  0  0  0
   -2.8011   -2.5629   -0.8453 H   0  0  0  0  0  0  0  0  0  0  0  0
   -3.9968   -2.7846    0.4530 H   0  0  0  0  0  0  0  0  0  0  0  0
   -5.8334   -1.1562    0.0683 H   0  0  0  0  0  0  0  0  0  0  0  0
   -3.0385    2.0528    0.7747 H   0  0  0  0  0  0  0  0  0  0  0  0
   -0.7008   -2.5596   -0.3557 H   0  0  0  0  0  0  0  0  0  0  0  0
   -7.0864    0.2895   -1.4900 H   0  0  0  0  0  0  0  0  0  0  0  0
   -4.3027    3.4863   -0.7851 H   0  0  0  0  0  0  0  0  0  0  0  0
   -6.3278    2.6121   -1.9206 H   0  0  0  0  0  0  0  0  0  0  0  0
    4.1792   -2.3068   -1.4648 H   0  0  0  0  0  0  0  0  0  0  0  0
    5.7265   -1.2361   -0.0299 H   0  0  0  0  0  0  0  0  0  0  0  0
    2.8246    1.9826   -0.1748 H   0  0  0  0  0  0  0  0  0  0  0  0
    7.4582    0.4830    0.3328 H   0  0  0  0  0  0  0  0  0  0  0  0
    4.7103    3.5465    0.2113 H   0  0  0  0  0  0  0  0  0  0  0  0
  1 13  1  0  0  0  0
  1 19  1  0  0  0  0
  2  9  2  0  0  0  0
  3  7  1  0  0  0  0
  3  9  1  0  0  0  0
  3 10  1  0  0  0  0
  4  9  1  0  0  0  0
  4 13  1  0  0  0  0
  4 31  1  0  0  0  0
  5 13  2  0  0  0  0
  5 14  1  0  0  0  0
  6 22  2  0  0  0  0
  6 23  1  0  0  0  0
  7  8  1  0  0  0  0
  7 24  1  0  0  0  0
  7 25  1  0  0  0  0
  8 11  2  0  0  0  0
  8 12  1  0  0  0  0
 10 26  1  0  0  0  0
 10 27  1  0  0  0  0
 10 28  1  0  0  0  0
 11 15  1  0  0  0  0
 11 29  1  0  0  0  0
 12 16  2  0  0  0  0
 12 30  1  0  0  0  0
 14 17  1  0  0  0  0
 14 19  2  0  0  0  0
 15 18  2  0  0  0  0
 15 32  1  0  0  0  0
 16 18  1  0  0  0  0
 16 33  1  0  0  0  0
 17 20  2  0  0  0  0
 17 21  1  0  0  0  0
 18 34  1  0  0  0  0
 19 35  1  0  0  0  0
 20 22  1  0  0  0  0
 20 36  1  0  0  0  0
 21 23  2  0  0  0  0
 21 37  1  0  0  0  0
 22 38  1  0  0  0  0
 23 39  1  0  0  0  0
M  END
> <PUBCHEM_COMPOUND_CID>
87405776

> <PUBCHEM_CONFORMER_RMSD>
0.8

> <PUBCHEM_CONFORMER_DIVERSEORDER>
2
66
20
4
67
65
35
73
12
70
47
30
48
50
40
76
21
42
11
34
49
57
38
69
77
60
71
1
52
17
22
74
80
16
51
75
6
61
63
25
14
58
28
33
41
81
79
36
64
26
56
24
23
44
9
18
59
82
39
62
5
3
19
31
72
46
8
45
27
29
15
43
13
32
7
55
10
68
53
78
37
54

> <PUBCHEM_MMFF94_PARTIAL_CHARGES>
34
1 -0.08
10 0.3
11 -0.15
12 -0.15
13 0.44
14 0.17
15 -0.15
16 -0.15
17 0.05
18 -0.15
19 -0.11
2 -0.57
20 -0.15
21 -0.15
22 0.16
23 0.16
29 0.15
3 -0.66
30 0.15
31 0.37
32 0.15
33 0.15
34 0.15
35 0.15
36 0.15
37 0.15
38 0.15
39 0.15
4 -0.49
5 -0.57
6 -0.62
7 0.44
8 -0.14
9 0.69

> <PUBCHEM_EFFECTIVE_ROTOR_COUNT>
6

> <PUBCHEM_PHARMACOPHORE_FEATURES>
6
1 2 acceptor
1 4 donor
1 6 acceptor
5 1 5 13 14 19 rings
6 6 17 20 21 22 23 rings
6 8 11 12 15 16 18 rings

> <PUBCHEM_HEAVY_ATOM_COUNT>
23

> <PUBCHEM_ATOM_DEF_STEREO_COUNT>
0

> <PUBCHEM_ATOM_UDEF_STEREO_COUNT>
0

> <PUBCHEM_BOND_DEF_STEREO_COUNT>
0

> <PUBCHEM_BOND_UDEF_STEREO_COUNT>
0

> <PUBCHEM_ISOTOPIC_ATOM_COUNT>
0

> <PUBCHEM_COMPONENT_COUNT>
1

> <PUBCHEM_CACTVS_TAUTO_COUNT>
3

> <PUBCHEM_CONFORMER_ID>
0535B4D000000002

> <PUBCHEM_MMFF94_ENERGY>
57.823

> <PUBCHEM_FEATURE_SELFOVERLAP>
30.447

> <PUBCHEM_SHAPE_FINGERPRINT>
10763959 59 18408330990859681516
11089746 13 18261954046450211194
11961588 58 18336255783007982579
12422481 6 17894631482802755956
12596602 18 15213312961948346492
12633257 1 13840275796528803563
12769317 202 18273494576756820992
12778500 126 17458898246404569368
13103583 49 14418141724607881547
13402501 40 18335417963068061149
13673619 4 10303813189582483875
13785724 45 18123471571678885898
13911987 19 17632859724702788951
13941219 33 8646772209985603917
14123256 34 7925642120014681592
14251732 14 14548734015047551565
14251757 5 16557889269309858967
14251764 30 10519992564692418138
14739800 52 17895463739990129553
14767858 380 17418091022757680777
15003188 100 18342175578928077788
15238133 3 17095532794433903470
15537594 2 13614244759211799661
15961568 22 18333449828764654165
16989378 47 16198766605362552542
17780758 139 10881399821035117567
18608769 82 18338800134862238267
193927 3 13038606471860737727
20058555 10 18336266850743656708
20157964 124 18342177739243892998
20281389 69 18260548922097404960
20715895 44 18336546027727779760
21033648 144 18342185448984489447
21033648 29 17968108477943453379
21315763 129 18334859471337457624
21315764 268 18187359883471454093
21859007 373 17750789952704623006
21968339 14 18059288769516400706
22765269 38 18410008836174780781
23559900 14 18198632038252139050
2838139 119 18409442587713077469
2916195 48 18260830393222350843
312425 54 16732978752338617992
335352 9 18272094890703601662
34797466 226 18201722808750695167
4371632 12 16412924222774388441
5104073 3 18114471050416899395
5283173 99 18408885109890817625
56633871 153 8790302449354587833
5969126 39 18194680595926807239
59755656 215 18339931424773182638
60123966 16 18199751336698770414
7237137 82 17560793394733283399
9981440 41 17821736005528635611
999808 66 9079121067973345032

> <PUBCHEM_SHAPE_MULTIPOLES>
451.39
17.43
3.01
1.06
0.88
0.15
0.01
-12.4
2.19
0.81
0.64
-1.03
0.14
2.16

> <PUBCHEM_SHAPE_SELFOVERLAP>
958.57

> <PUBCHEM_SHAPE_VOLUME>
253.6

> <PUBCHEM_COORDINATE_TYPE>
2
5
10

$$$$
67450910
  -OEChem-05102415093D

 43 45  0     0  0  0  0  0  0999 V2000
    2.4008   -3.1334   -1.1558 S   0  0  0  0  0  0  0  0  0  0  0  0
   -2.6700    3.4191   -1.0418 O   0  0  0  0  0  0  0  0  0  0  0  0
   -2.3258   -3.1502    0.5843 O   0  0  0  0  0  0  0  0  0  0  0  0
   -0.1046   -3.1099   -0.1814 N   0  0  0  0  0  0  0  0  0  0  0  0
   -1.0421   -1.2955    1.0070 N   0  0  0  0  0  0  0  0  0  0  0  0
    1.3479   -1.1106    0.0616 N   0  0  0  0  0  0  0  0  0  0  0  0
    4.2262    3.0500    0.6246 N   0  0  0  0  0  0  0  0  0  0  0  0
   -2.0794   -0.5816    1.7164 C   0  0  0  0  0  0  0  0  0  0  0  0
   -2.9101    0.2644    0.7954 C   0  0  0  0  0  0  0  0  0  0  0  0
   -1.2427   -2.5694    0.4733 C   0  0  0  0  0  0  0  0  0  0  0  0
    1.1152   -2.3398   -0.3420 C   0  0  0  0  0  0  0  0  0  0  0  0
   -2.3980    1.4628    0.2977 C   0  0  0  0  0  0  0  0  0  0  0  0
   -4.1940   -0.1473    0.4378 C   0  0  0  0  0  0  0  0  0  0  0  0
    2.6357   -0.7602   -0.2941 C   0  0  0  0  0  0  0  0  0  0  0  0
   -3.1697    2.2494   -0.5575 C   0  0  0  0  0  0  0  0  0  0  0  0
    3.1751    0.5319    0.0175 C   0  0  0  0  0  0  0  0  0  0  0  0
   -0.1463   -4.4476   -0.7925 C   0  0  0  0  0  0  0  0  0  0  0  0
   -4.9659    0.6395   -0.4172 C   0  0  0  0  0  0  0  0  0  0  0  0
   -4.4537    1.8377   -0.9151 C   0  0  0  0  0  0  0  0  0  0  0  0
    3.3607   -1.7257   -0.9607 C   0  0  0  0  0  0  0  0  0  0  0  0
    3.6066    1.3726   -1.0026 C   0  0  0  0  0  0  0  0  0  0  0  0
    3.2685    0.9488    1.3407 C   0  0  0  0  0  0  0  0  0  0  0  0
    4.1197    2.6103   -0.6495 C   0  0  0  0  0  0  0  0  0  0  0  0
    3.7965    2.2055    1.5890 C   0  0  0  0  0  0  0  0  0  0  0  0
   -1.3504    3.7790   -0.6352 C   0  0  0  0  0  0  0  0  0  0  0  0
   -1.5914    0.0516    2.4665 H   0  0  0  0  0  0  0  0  0  0  0  0
   -2.7050   -1.2956    2.2646 H   0  0  0  0  0  0  0  0  0  0  0  0
   -0.1537   -0.8215    0.9213 H   0  0  0  0  0  0  0  0  0  0  0  0
   -1.3941    1.7332    0.6088 H   0  0  0  0  0  0  0  0  0  0  0  0
   -4.6054   -1.0789    0.8171 H   0  0  0  0  0  0  0  0  0  0  0  0
   -1.1251   -4.9045   -0.6155 H   0  0  0  0  0  0  0  0  0  0  0  0
   -0.0158   -4.3735   -1.8766 H   0  0  0  0  0  0  0  0  0  0  0  0
    0.6017   -5.0995   -0.3311 H   0  0  0  0  0  0  0  0  0  0  0  0
   -5.9655    0.3189   -0.6958 H   0  0  0  0  0  0  0  0  0  0  0  0
   -5.0597    2.4462   -1.5808 H   0  0  0  0  0  0  0  0  0  0  0  0
    4.3753   -1.6855   -1.3328 H   0  0  0  0  0  0  0  0  0  0  0  0
    3.5474    1.0889   -2.0486 H   0  0  0  0  0  0  0  0  0  0  0  0
    2.9430    0.3217    2.1645 H   0  0  0  0  0  0  0  0  0  0  0  0
    4.4688    3.3037   -1.4076 H   0  0  0  0  0  0  0  0  0  0  0  0
    3.8908    2.5778    2.6039 H   0  0  0  0  0  0  0  0  0  0  0  0
   -1.1142    4.7347   -1.1145 H   0  0  0  0  0  0  0  0  0  0  0  0
   -0.6084    3.0539   -0.9869 H   0  0  0  0  0  0  0  0  0  0  0  0
   -1.2925    3.9416    0.4464 H   0  0  0  0  0  0  0  0  0  0  0  0
  1 11  1  0  0  0  0
  1 20  1  0  0  0  0
  2 15  1  0  0  0  0
  2 25  1  0  0  0  0
  3 10  2  0  0  0  0
  4 10  1  0  0  0  0
  4 11  1  0  0  0  0
  4 17  1  0  0  0  0
  5  8  1  0  0  0  0
  5 10  1  0  0  0  0
  5 28  1  0  0  0  0
  6 11  2  0  0  0  0
  6 14  1  0  0  0  0
  7 23  2  0  0  0  0
  7 24  1  0  0  0  0
  8  9  1  0  0  0  0
  8 26  1  0  0  0  0
  8 27  1  0  0  0  0
  9 12  2  0  0  0  0
  9 13  1  0  0  0  0
 12 15  1  0  0  0  0
 12 29  1  0  0  0  0
 13 18  2  0  0  0  0
 13 30  1  0  0  0  0
 14 16  1  0  0  0  0
 14 20  2  0  0  0  0
 15 19  2  0  0  0  0
 16 21  2  0  0  0  0
 16 22  1  0  0  0  0
 17 31  1  0  0  0  0
 17 32  1  0  0  0  0
 17 33  1  0  0  0  0
 18 19  1  0  0  0  0
 18 34  1  0  0  0  0
 19 35  1  0  0  0  0
 20 36  1  0  0  0  0
 21 23  1  0  0  0  0
 21 37  1  0  0  0  0
 22 24  2  0  0  0  0
 22 38  1  0  0  0  0
 23 39  1  0  0  0  0
 24 40  1  0  0  0  0
 25 41  1  0  0  0  0
 25 42  1  0  0  0  0
 25 43  1  0  0  0  0
M  END
> <PUBCHEM_COMPOUND_CID>
67450910

> <PUBCHEM_CONFORMER_RMSD>
1

> <PUBCHEM_CONFORMER_DIVERSEORDER>
8
123
2
124
54
89
88
101
126
127
16
40
151
60
77
129
136
92
31
150
12
51
94
19
13
15
48
155
103
63
95
107
137
36
1
34
73
47
55
164
159
57
156
11
20
118
139
38
146
79
78
71
120
5
110
83
115
53
113
167
166
105
133
3
85
30
98
97
9
109
128
134
144
162
130
64
153
46
65
4
32
27
100
24
132
39
138
25
104
56
75
37
84
90
141
157
21
14
108
91
82
114
80
26
121
147
72
116
7
74
22
86
161
44
42
143
149
165
28
135
152
142
10
96
59
117
23
61
81
111
6
49
70
68
99
102
131
29
163
145
87
43
35
112
140
69
125
76
148
67
122
18
154
106
93
45
17
158
66
160
62
58
119
50
33
52
41

> <PUBCHEM_MMFF94_PARTIAL_CHARGES>
35
1 -0.08
10 0.69
11 0.44
12 -0.15
13 -0.15
14 0.17
15 0.08
16 0.05
17 0.3
18 -0.15
19 -0.15
2 -0.36
20 -0.11
21 -0.15
22 -0.15
23 0.16
24 0.16
25 0.28
28 0.37
29 0.15
3 -0.57
30 0.15
34 0.15
35 0.15
36 0.15
37 0.15
38 0.15
39 0.15
4 -0.42
40 0.15
5 -0.73
6 -0.57
7 -0.62
8 0.44
9 -0.14

> <PUBCHEM_EFFECTIVE_ROTOR_COUNT>
7

> <PUBCHEM_PHARMACOPHORE_FEATURES>
7
1 2 acceptor
1 3 acceptor
1 5 donor
1 7 acceptor
5 1 6 11 14 20 rings
6 7 16 21 22 23 24 rings
6 9 12 13 15 18 19 rings

> <PUBCHEM_HEAVY_ATOM_COUNT>
25

> <PUBCHEM_ATOM_DEF_STEREO_COUNT>
0

> <PUBCHEM_ATOM_UDEF_STEREO_COUNT>
0

> <PUBCHEM_BOND_DEF_STEREO_COUNT>
0

> <PUBCHEM_BOND_UDEF_STEREO_COUNT>
0

> <PUBCHEM_ISOTOPIC_ATOM_COUNT>
0

> <PUBCHEM_COMPONENT_COUNT>
1

> <PUBCHEM_CACTVS_TAUTO_COUNT>
2

> <PUBCHEM_CONFORMER_ID>
0405381E00000008

> <PUBCHEM_MMFF94_ENERGY>
77.9204

> <PUBCHEM_FEATURE_SELFOVERLAP>
35.522

> <PUBCHEM_SHAPE_FINGERPRINT>
10439779 11 18048584924740575810
10498660 4 18339368585877046040
10670039 82 17977119160480339340
10871710 139 17760095411705066756
11211813 74 18190733130561883077
11370993 70 18409726248849292553
12100795 323 18337391642506316628
13402501 40 18336548205439657812
1361 2 18411976997034339533
14251764 38 18263359205230899049
14466204 15 18048029667305871906
14468879 13 18261398874882653427
14930077 153 17538594366944149956
14957384 54 18335128822112271522
19930381 70 18338232657480309381
20567600 299 17907010673386283461
21860390 5 17839744768355489158
23536364 44 17550421473878133238
23559900 14 18121213186682634589
238 59 18199467662466558414
3187 122 17903358456795001947
469060 322 17833565860905338491
5252454 2 18127433317460949114
54672768 99 18336551499895825628
6608658 132 17255409743808772604
7808743 9 18121502612139896564

> <PUBCHEM_SHAPE_MULTIPOLES>
486.68
9.5
5.65
1.32
2.76
2.03
0.29
-7.7
-0.75
-1.73
-1.42
-0.32
-0.27
2.51

> <PUBCHEM_SHAPE_SELFOVERLAP>
1032.07

> <PUBCHEM_SHAPE_VOLUME>
274.1

> <PUBCHEM_COORDINATE_TYPE>
2
5
10

$$$$
87405962
  -OEChem-05102415093D

 43 45  0     0  0  0  0  0  0999 V2000
   -2.4785   -2.6828    1.2991 S   0  0  0  0  0  0  0  0  0  0  0  0
    7.0128    0.2173    0.6746 O   0  0  0  0  0  0  0  0  0  0  0  0
    0.1829    0.1040   -1.2914 O   0  0  0  0  0  0  0  0  0  0  0  0
    1.8146   -1.4891   -0.8926 N   0  0  0  0  0  0  0  0  0  0  0  0
   -0.3446   -1.7471    0.0156 N   0  0  0  0  0  0  0  0  0  0  0  0
   -2.4442   -0.4827   -0.0576 N   0  0  0  0  0  0  0  0  0  0  0  0
   -6.7567    2.2131   -0.2697 N   0  0  0  0  0  0  0  0  0  0  0  0
    2.8483   -0.8203   -1.6798 C   0  0  0  0  0  0  0  0  0  0  0  0
    3.6849    0.1018   -0.8406 C   0  0  0  0  0  0  0  0  0  0  0  0
    4.9761   -0.2726   -0.4689 C   0  0  0  0  0  0  0  0  0  0  0  0
    3.1707    1.3326   -0.4323 C   0  0  0  0  0  0  0  0  0  0  0  0
    0.5121   -0.9556   -0.7536 C   0  0  0  0  0  0  0  0  0  0  0  0
    2.2108   -2.7409   -0.2599 C   0  0  0  0  0  0  0  0  0  0  0  0
    5.7533    0.5836    0.3113 C   0  0  0  0  0  0  0  0  0  0  0  0
    3.9478    2.1888    0.3481 C   0  0  0  0  0  0  0  0  0  0  0  0
    5.2392    1.8144    0.7196 C   0  0  0  0  0  0  0  0  0  0  0  0
   -1.7068   -1.5033    0.3204 C   0  0  0  0  0  0  0  0  0  0  0  0
   -3.7158   -0.6349    0.4598 C   0  0  0  0  0  0  0  0  0  0  0  0
   -4.7471    0.3310    0.2124 C   0  0  0  0  0  0  0  0  0  0  0  0
   -3.9255   -1.7656    1.2210 C   0  0  0  0  0  0  0  0  0  0  0  0
   -6.0788   -0.0663    0.1659 C   0  0  0  0  0  0  0  0  0  0  0  0
   -4.4190    1.6683    0.0183 C   0  0  0  0  0  0  0  0  0  0  0  0
   -7.0371    0.9048   -0.0762 C   0  0  0  0  0  0  0  0  0  0  0  0
   -5.4517    2.5617   -0.2172 C   0  0  0  0  0  0  0  0  0  0  0  0
    7.7521    1.1398    1.4736 C   0  0  0  0  0  0  0  0  0  0  0  0
    2.3662   -0.2308   -2.4698 H   0  0  0  0  0  0  0  0  0  0  0  0
    3.4572   -1.5716   -2.1968 H   0  0  0  0  0  0  0  0  0  0  0  0
    5.3833   -1.2308   -0.7823 H   0  0  0  0  0  0  0  0  0  0  0  0
    2.1733    1.6489   -0.7204 H   0  0  0  0  0  0  0  0  0  0  0  0
    2.0723   -2.6603    0.8226 H   0  0  0  0  0  0  0  0  0  0  0  0
    3.2614   -2.9708   -0.4590 H   0  0  0  0  0  0  0  0  0  0  0  0
    1.5931   -3.5542   -0.6526 H   0  0  0  0  0  0  0  0  0  0  0  0
    3.5476    3.1481    0.6634 H   0  0  0  0  0  0  0  0  0  0  0  0
   -0.0036   -2.6087    0.4268 H   0  0  0  0  0  0  0  0  0  0  0  0
    5.7881    2.5273    1.3255 H   0  0  0  0  0  0  0  0  0  0  0  0
   -4.8135   -2.1027    1.7377 H   0  0  0  0  0  0  0  0  0  0  0  0
   -6.3948   -1.0962    0.2933 H   0  0  0  0  0  0  0  0  0  0  0  0
   -3.3945    2.0249    0.0501 H   0  0  0  0  0  0  0  0  0  0  0  0
   -8.0897    0.6463   -0.1265 H   0  0  0  0  0  0  0  0  0  0  0  0
   -5.2490    3.6161   -0.3739 H   0  0  0  0  0  0  0  0  0  0  0  0
    8.7296    0.6868    1.6693 H   0  0  0  0  0  0  0  0  0  0  0  0
    7.2748    1.3024    2.4459 H   0  0  0  0  0  0  0  0  0  0  0  0
    7.9357    2.0780    0.9391 H   0  0  0  0  0  0  0  0  0  0  0  0
  1 17  1  0  0  0  0
  1 20  1  0  0  0  0
  2 14  1  0  0  0  0
  2 25  1  0  0  0  0
  3 12  2  0  0  0  0
  4  8  1  0  0  0  0
  4 12  1  0  0  0  0
  4 13  1  0  0  0  0
  5 12  1  0  0  0  0
  5 17  1  0  0  0  0
  5 34  1  0  0  0  0
  6 17  2  0  0  0  0
  6 18  1  0  0  0  0
  7 23  2  0  0  0  0
  7 24  1  0  0  0  0
  8  9  1  0  0  0  0
  8 26  1  0  0  0  0
  8 27  1  0  0  0  0
  9 10  2  0  0  0  0
  9 11  1  0  0  0  0
 10 14  1  0  0  0  0
 10 28  1  0  0  0  0
 11 15  2  0  0  0  0
 11 29  1  0  0  0  0
 13 30  1  0  0  0  0
 13 31  1  0  0  0  0
 13 32  1  0  0  0  0
 14 16  2  0  0  0  0
 15 16  1  0  0  0  0
 15 33  1  0  0  0  0
 16 35  1  0  0  0  0
 18 19  1  0  0  0  0
 18 20  2  0  0  0  0
 19 21  2  0  0  0  0
 19 22  1  0  0  0  0
 20 36  1  0  0  0  0
 21 23  1  0  0  0  0
 21 37  1  0  0  0  0
 22 24  2  0  0  0  0
 22 38  1  0  0  0  0
 23 39  1  0  0  0  0
 24 40  1  0  0  0  0
 25 41  1  0  0  0  0
 25 42  1  0  0  0  0
 25 43  1  0  0  0  0
M  END
> <PUBCHEM_COMPOUND_CID>
87405962

> <PUBCHEM_CONFORMER_RMSD>
1

> <PUBCHEM_CONFORMER_DIVERSEORDER>
4
44
17
106
69
19
89
20
125
96
65
90
76
33
63
129
121
56
104
92
88
29
105
73
109
1
74
123
135
36
94
28
136
41
42
58
27
64
50
75
52
100
101
110
116
72
5
40
43
3
35
120
134
14
45
128
32
82
133
6
18
48
7
49
112
66
67
55
114
26
83
9
47
127
62
25
78
51
108
84
95
79
99
8
53
22
13
38
117
103
77
126
118
131
11
60
80
113
124
59
85
119
21
30
70
10
37
34
54
16
24
61
87
71
130
115
111
98
107
12
57
93
97
15
122
46
102
39
23
2
31
132
86
91
68
81

> <PUBCHEM_MMFF94_PARTIAL_CHARGES>
35
1 -0.08
10 -0.15
11 -0.15
12 0.69
13 0.3
14 0.08
15 -0.15
16 -0.15
17 0.44
18 0.17
19 0.05
2 -0.36
20 -0.11
21 -0.15
22 -0.15
23 0.16
24 0.16
25 0.28
28 0.15
29 0.15
3 -0.57
33 0.15
34 0.37
35 0.15
36 0.15
37 0.15
38 0.15
39 0.15
4 -0.66
40 0.15
5 -0.49
6 -0.57
7 -0.62
8 0.44
9 -0.14

> <PUBCHEM_EFFECTIVE_ROTOR_COUNT>
7

> <PUBCHEM_PHARMACOPHORE_FEATURES>
7
1 2 acceptor
1 3 acceptor
1 5 donor
1 7 acceptor
5 1 6 17 18 20 rings
6 7 19 21 22 23 24 rings
6 9 10 11 14 15 16 rings

> <PUBCHEM_HEAVY_ATOM_COUNT>
25

> <PUBCHEM_ATOM_DEF_STEREO_COUNT>
0

> <PUBCHEM_ATOM_UDEF_STEREO_COUNT>
0

> <PUBCHEM_BOND_DEF_STEREO_COUNT>
0

> <PUBCHEM_BOND_UDEF_STEREO_COUNT>
0

> <PUBCHEM_ISOTOPIC_ATOM_COUNT>
0

> <PUBCHEM_COMPONENT_COUNT>
1

> <PUBCHEM_CACTVS_TAUTO_COUNT>
3

> <PUBCHEM_CONFORMER_ID>
0535B58A00000004

> <PUBCHEM_MMFF94_ENERGY>
72.4184

> <PUBCHEM_FEATURE_SELFOVERLAP>
35.522

> <PUBCHEM_SHAPE_FINGERPRINT>
10 15 18040725800356104057
10319926 262 18187652439791037218
10674148 151 18040715875672893328
11089746 13 18411698794189660255
12107183 9 17968093140304243368
12403259 118 18262522618673922998
12596602 18 15864366790978081637
12616971 3 15791735238684788190
12633257 1 16950569925489576351
12760667 363 7853570193865903083
12778500 126 18040428868240287256
13103583 49 16371009654139135154
13402501 40 18413107260211573985
13668630 136 11169910572251089088
13673619 4 8142084260453957199
13685833 64 11386365946048794558
13911987 19 17060339609299201999
14123256 34 8214140767701277952
14223995 32 18116709608593878693
14251732 14 11455891355801294711
14347424 109 18408877427001245602
14739800 52 18334286531648763595
14767858 380 14261351357828608486
14950920 106 14418433095790921541
15142383 8 18410853279345384128
15238133 3 18113908182220655132
15274700 208 16342280563196481864
15289351 153 18200307715937368538
15352257 5 8358259245880727833
15419008 145 18262225613607536784
15461852 350 18059295477775308838
15537594 2 12757145822765550664
18608769 82 18338521941377393107
18643901 69 9655578526400466209
195137 95 18342448236722090856
20157964 124 18060706065320876942
20567600 254 17989205967234325114
20715895 44 18413110558804050976
21033648 29 18410301323611493774
21150785 3 13686296889676819184
21315763 129 18337675337827768107
21315763 76 17203332238604423944
21403212 168 17530958069356352483
21452121 103 18410857642499588686
21774942 28 17560245704355656896
21859007 373 18336548209718522022
21968339 14 17489870402068490310
22765269 38 18060137647984662334
23522609 53 16806190837849049182
23559900 14 18189634781656641966
2838139 119 18342734139556745877
2916195 48 18410295796557964511
312425 54 17604141636431482464
3459 39 17895182291068149893
34797466 226 17774730771049787383
4073 2 18114188574639254058
44249763 50 18131347552833021719
465052 167 12179841702336380370
5104073 3 18114753633732756995
5283384 27 17703785947077142336
5969126 39 18197216065566830415
653340 110 17970909951788242685
8217 86 9583522022851707970
8863177 126 7925622285133060885
9981440 41 18186812374674866947
999808 66 11891327647420366832

> <PUBCHEM_SHAPE_MULTIPOLES>
486.68
20.58
2.85
1.17
3.86
0.33
0.01
-14.21
-5.26
-2.18
-0.45
1.17
0.3
2.37

> <PUBCHEM_SHAPE_SELFOVERLAP>
1031.142

> <PUBCHEM_SHAPE_VOLUME>
274.9

> <PUBCHEM_COORDINATE_TYPE>
2
5
10

$$$$
87406409
  -OEChem-05102415103D

 39 41  0     1  0  0  0  0  0999 V2000
   -1.8763    2.7229   -1.2380 S   0  0  0  0  0  0  0  0  0  0  0  0
    0.8757   -0.2387    1.1241 O   0  0  0  0  0  0  0  0  0  0  0  0
    2.4460    1.3679    0.5832 N   0  0  0  0  0  0  0  0  0  0  0  0
    0.2881    1.6692   -0.1107 N   0  0  0  0  0  0  0  0  0  0  0  0
   -1.8491    0.4831    0.0523 N   0  0  0  0  0  0  0  0  0  0  0  0
   -6.2442   -2.0544    0.4454 N   0  0  0  0  0  0  0  0  0  0  0  0
    3.5738    0.7172    1.2284 C   0  0  1  0  0  0  0  0  0  0  0  0
    4.2916   -0.2161    0.3127 C   0  0  0  0  0  0  0  0  0  0  0  0
    4.4842    1.7926    1.8395 C   0  0  0  0  0  0  0  0  0  0  0  0
    4.8652   -1.3834    0.8166 C   0  0  0  0  0  0  0  0  0  0  0  0
    4.3893    0.0782   -1.0472 C   0  0  0  0  0  0  0  0  0  0  0  0
    1.1613    0.8267    0.5828 C   0  0  0  0  0  0  0  0  0  0  0  0
    5.5365   -2.2564   -0.0394 C   0  0  0  0  0  0  0  0  0  0  0  0
    5.0606   -0.7948   -1.9033 C   0  0  0  0  0  0  0  0  0  0  0  0
    5.6341   -1.9621   -1.3994 C   0  0  0  0  0  0  0  0  0  0  0  0
   -1.0956    1.4863   -0.3402 C   0  0  0  0  0  0  0  0  0  0  0  0
   -3.1417    0.6984   -0.3840 C   0  0  0  0  0  0  0  0  0  0  0  0
   -4.1939   -0.2351   -0.1028 C   0  0  0  0  0  0  0  0  0  0  0  0
   -3.3510    1.8586   -1.0995 C   0  0  0  0  0  0  0  0  0  0  0  0
   -5.5040    0.2100    0.0341 C   0  0  0  0  0  0  0  0  0  0  0  0
   -3.9078   -1.5890    0.0342 C   0  0  0  0  0  0  0  0  0  0  0  0
   -6.4838   -0.7312    0.3056 C   0  0  0  0  0  0  0  0  0  0  0  0
   -4.9590   -2.4499    0.3056 C   0  0  0  0  0  0  0  0  0  0  0  0
    3.1600    0.1320    2.0604 H   0  0  0  0  0  0  0  0  0  0  0  0
    4.9115    2.4394    1.0644 H   0  0  0  0  0  0  0  0  0  0  0  0
    3.9231    2.4298    2.5319 H   0  0  0  0  0  0  0  0  0  0  0  0
    5.3145    1.3376    2.3903 H   0  0  0  0  0  0  0  0  0  0  0  0
    2.6125    2.2211    0.0579 H   0  0  0  0  0  0  0  0  0  0  0  0
    4.7985   -1.6240    1.8743 H   0  0  0  0  0  0  0  0  0  0  0  0
    3.9664    0.9866   -1.4671 H   0  0  0  0  0  0  0  0  0  0  0  0
    5.9837   -3.1650    0.3530 H   0  0  0  0  0  0  0  0  0  0  0  0
    5.1399   -0.5642   -2.9617 H   0  0  0  0  0  0  0  0  0  0  0  0
    0.6682    2.5239   -0.5079 H   0  0  0  0  0  0  0  0  0  0  0  0
    6.1576   -2.6414   -2.0657 H   0  0  0  0  0  0  0  0  0  0  0  0
   -4.2538    2.2442   -1.5527 H   0  0  0  0  0  0  0  0  0  0  0  0
   -5.7864    1.2545   -0.0455 H   0  0  0  0  0  0  0  0  0  0  0  0
   -2.9016   -1.9827   -0.0686 H   0  0  0  0  0  0  0  0  0  0  0  0
   -7.5208   -0.4352    0.4256 H   0  0  0  0  0  0  0  0  0  0  0  0
   -4.7890   -3.5154    0.4204 H   0  0  0  0  0  0  0  0  0  0  0  0
  1 16  1  0  0  0  0
  1 19  1  0  0  0  0
  2 12  2  0  0  0  0
  3  7  1  0  0  0  0
  3 12  1  0  0  0  0
  3 28  1  0  0  0  0
  4 12  1  0  0  0  0
  4 16  1  0  0  0  0
  4 33  1  0  0  0  0
  5 16  2  0  0  0  0
  5 17  1  0  0  0  0
  6 22  2  0  0  0  0
  6 23  1  0  0  0  0
  7  8  1  0  0  0  0
  7  9  1  0  0  0  0
  7 24  1  0  0  0  0
  8 10  2  0  0  0  0
  8 11  1  0  0  0  0
  9 25  1  0  0  0  0
  9 26  1  0  0  0  0
  9 27  1  0  0  0  0
 10 13  1  0  0  0  0
 10 29  1  0  0  0  0
 11 14  2  0  0  0  0
 11 30  1  0  0  0  0
 13 15  2  0  0  0  0
 13 31  1  0  0  0  0
 14 15  1  0  0  0  0
 14 32  1  0  0  0  0
 15 34  1  0  0  0  0
 17 18  1  0  0  0  0
 17 19  2  0  0  0  0
 18 20  2  0  0  0  0
 18 21  1  0  0  0  0
 19 35  1  0  0  0  0
 20 22  1  0  0  0  0
 20 36  1  0  0  0  0
 21 23  2  0  0  0  0
 21 37  1  0  0  0  0
 22 38  1  0  0  0  0
 23 39  1  0  0  0  0
M  END
> <PUBCHEM_COMPOUND_CID>
87406409

> <PUBCHEM_CONFORMER_RMSD>
0.8

> <PUBCHEM_CONFORMER_DIVERSEORDER>
1
34
7
42
35
30
19
16
17
3
39
26
5
43
9
18
41
22
38
4
32
10
40
33
25
11
15
36
12
13
29
6
14
37
20
27
28
8
2
24
21
23
31

> <PUBCHEM_MMFF94_PARTIAL_CHARGES>
34
1 -0.08
10 -0.15
11 -0.15
12 0.69
13 -0.15
14 -0.15
15 -0.15
16 0.44
17 0.17
18 0.05
19 -0.11
2 -0.57
20 -0.15
21 -0.15
22 0.16
23 0.16
28 0.37
29 0.15
3 -0.73
30 0.15
31 0.15
32 0.15
33 0.37
34 0.15
35 0.15
36 0.15
37 0.15
38 0.15
39 0.15
4 -0.49
5 -0.57
6 -0.62
7 0.44
8 -0.14

> <PUBCHEM_EFFECTIVE_ROTOR_COUNT>
6

> <PUBCHEM_PHARMACOPHORE_FEATURES>
7
1 2 acceptor
1 3 donor
1 4 donor
1 6 acceptor
5 1 5 16 17 19 rings
6 6 18 20 21 22 23 rings
6 8 10 11 13 14 15 rings

> <PUBCHEM_HEAVY_ATOM_COUNT>
23

> <PUBCHEM_ATOM_DEF_STEREO_COUNT>
1

> <PUBCHEM_ATOM_UDEF_STEREO_COUNT>
0

> <PUBCHEM_BOND_DEF_STEREO_COUNT>
0

> <PUBCHEM_BOND_UDEF_STEREO_COUNT>
0

> <PUBCHEM_ISOTOPIC_ATOM_COUNT>
0

> <PUBCHEM_COMPONENT_COUNT>
1

> <PUBCHEM_CACTVS_TAUTO_COUNT>
5

> <PUBCHEM_CONFORMER_ID>
0535B74900000001

> <PUBCHEM_MMFF94_ENERGY>
53.3147

> <PUBCHEM_FEATURE_SELFOVERLAP>
35.576

> <PUBCHEM_SHAPE_FINGERPRINT>
10 15 11815889089660904119
10692045 39 12031244870042280868
10981352 41 18130784616081442167
11056379 131 18187362074390396525
11128504 68 16950288394836299196
11524674 6 17561362873121481759
11796584 16 18193554459600681718
12342043 65 18272652316485093460
12422481 6 17775569766651062879
12616971 3 16343977001255647324
12633257 1 15338830993150972436
12730499 353 18130503141642606760
13402501 40 18342181059195987015
13533116 47 17561365101818604626
13673619 4 18342179955288755729
13782708 43 18201717358136756463
13911987 19 13984669131060706569
13914758 101 16773515478739617785
13955234 65 17703216417487246016
14123256 34 18114470054332723787
14216079 64 18411418436748634063
14251732 14 18261683618498164204
14251740 57 18410013277514291724
14251751 18 18410289169402620030
14251764 30 18412266133694395453
14341114 176 18273496801471044825
14347332 77 18114177493243438693
14347424 109 17489870435937670776
14420673 8 18410298004319250523
14528608 73 15502380010803663948
14556957 393 15647055924087673863
14840074 17 15285365007020546367
14910302 57 18408035208671498956
15352257 5 18413674607984432375
15510800 12 17844815781135613638
15799311 1 18265630800485301363
17844677 252 18411699872321819320
17909252 39 18340202986680986074
1813 80 17676763262238060725
18222031 100 17821445768038126404
193927 3 17775287110890355484
20621476 21 18341899579881779751
20645477 70 18060135428140626704
20715895 44 9583524208990451574
21065201 7 18263631897231695496
21267235 1 18187087291478608907
21315759 148 18201154446584729529
21623969 137 17775283855189204766
21641784 216 16443339858488897301
22289505 5 11602820182081287674
22950370 63 18334860545469905629
2297311 6 18334016077727185917
23016692 55 18260832605003816837
2303208 19 18412262830954274153
23522609 53 18118999968502809733
23559900 14 18409157827308444517
239999 70 18413103992278973600
25122255 55 18411986866505182195
2748736 6 10231763253893536707
3004659 81 17821730567498528109
3089732 80 18413110545676835406
312425 54 18202568406075017331
439807 62 18334578992946666622
46194498 28 18410856573406225116
465052 167 18131636664783707094
5104073 3 18060415790140930000
59755656 215 18336542720993222199
59755656 520 18124033425951377545
7237137 82 17385715881820075813
86090 222 17488763193817798598
8863177 126 18343300388018722102

> <PUBCHEM_SHAPE_MULTIPOLES>
451.39
17.8
2.74
1.4
3.64
0.14
-0.15
12.3
-0.62
1.05
-0.31
-2.36
-0.33
2.81

> <PUBCHEM_SHAPE_SELFOVERLAP>
960.038

> <PUBCHEM_SHAPE_VOLUME>
252.8

> <PUBCHEM_COORDINATE_TYPE>
2
5
10

$$$$
87406410
  -OEChem-05102415103D

 40 42  0     1  0  0  0  0  0999 V2000
   -1.9952    2.6134   -1.4004 S   0  0  0  0  0  0  0  0  0  0  0  0
    4.9554    2.3431    0.5964 O   0  0  0  0  0  0  0  0  0  0  0  0
    0.6709   -0.3042    1.1103 O   0  0  0  0  0  0  0  0  0  0  0  0
    2.2906    1.2120    0.4657 N   0  0  0  0  0  0  0  0  0  0  0  0
    0.1403    1.5493   -0.2289 N   0  0  0  0  0  0  0  0  0  0  0  0
   -2.0360    0.4520    0.0171 N   0  0  0  0  0  0  0  0  0  0  0  0
   -6.5148   -1.8991    0.5863 N   0  0  0  0  0  0  0  0  0  0  0  0
    3.4019    0.5584    1.1408 C   0  0  1  0  0  0  0  0  0  0  0  0
    4.0570   -0.4548    0.2640 C   0  0  0  0  0  0  0  0  0  0  0  0
    4.3800    1.6187    1.6788 C   0  0  0  0  0  0  0  0  0  0  0  0
    4.5831   -1.6212    0.8191 C   0  0  0  0  0  0  0  0  0  0  0  0
    4.1433   -0.2363   -1.1110 C   0  0  0  0  0  0  0  0  0  0  0  0
    0.9893    0.7173    0.5064 C   0  0  0  0  0  0  0  0  0  0  0  0
    5.1957   -2.5690   -0.0006 C   0  0  0  0  0  0  0  0  0  0  0  0
    4.7557   -1.1841   -1.9309 C   0  0  0  0  0  0  0  0  0  0  0  0
    5.2820   -2.3505   -1.3756 C   0  0  0  0  0  0  0  0  0  0  0  0
   -1.2510    1.4032   -0.4380 C   0  0  0  0  0  0  0  0  0  0  0  0
   -3.3241    0.6881   -0.4221 C   0  0  0  0  0  0  0  0  0  0  0  0
   -4.4061   -0.1894   -0.0802 C   0  0  0  0  0  0  0  0  0  0  0  0
   -3.4985    1.8120   -1.2022 C   0  0  0  0  0  0  0  0  0  0  0  0
   -5.6984    0.3099    0.0395 C   0  0  0  0  0  0  0  0  0  0  0  0
   -4.1669   -1.5424    0.1328 C   0  0  0  0  0  0  0  0  0  0  0  0
   -6.7085   -0.5784    0.3718 C   0  0  0  0  0  0  0  0  0  0  0  0
   -5.2457   -2.3479    0.4608 C   0  0  0  0  0  0  0  0  0  0  0  0
    2.9759    0.0403    2.0102 H   0  0  0  0  0  0  0  0  0  0  0  0
    3.8591    2.3303    2.3285 H   0  0  0  0  0  0  0  0  0  0  0  0
    5.1907    1.1493    2.2463 H   0  0  0  0  0  0  0  0  0  0  0  0
    2.4830    2.0304   -0.1043 H   0  0  0  0  0  0  0  0  0  0  0  0
    4.5246   -1.8032    1.8890 H   0  0  0  0  0  0  0  0  0  0  0  0
    3.7561    0.6674   -1.5732 H   0  0  0  0  0  0  0  0  0  0  0  0
    5.6061   -3.4769    0.4316 H   0  0  0  0  0  0  0  0  0  0  0  0
    4.8259   -1.0128   -3.0011 H   0  0  0  0  0  0  0  0  0  0  0  0
    5.7597   -3.0881   -2.0138 H   0  0  0  0  0  0  0  0  0  0  0  0
    0.5469    2.3654   -0.6775 H   0  0  0  0  0  0  0  0  0  0  0  0
    5.5629    2.9969    0.9825 H   0  0  0  0  0  0  0  0  0  0  0  0
   -4.3910    2.2030   -1.6708 H   0  0  0  0  0  0  0  0  0  0  0  0
   -5.9441    1.3575   -0.0984 H   0  0  0  0  0  0  0  0  0  0  0  0
   -3.1764   -1.9772    0.0462 H   0  0  0  0  0  0  0  0  0  0  0  0
   -7.7332   -0.2388    0.4816 H   0  0  0  0  0  0  0  0  0  0  0  0
   -5.1125   -3.4104    0.6359 H   0  0  0  0  0  0  0  0  0  0  0  0
  1 17  1  0  0  0  0
  1 20  1  0  0  0  0
  2 10  1  0  0  0  0
  2 35  1  0  0  0  0
  3 13  2  0  0  0  0
  4  8  1  0  0  0  0
  4 13  1  0  0  0  0
  4 28  1  0  0  0  0
  5 13  1  0  0  0  0
  5 17  1  0  0  0  0
  5 34  1  0  0  0  0
  6 17  2  0  0  0  0
  6 18  1  0  0  0  0
  7 23  2  0  0  0  0
  7 24  1  0  0  0  0
  8  9  1  0  0  0  0
  8 10  1  0  0  0  0
  8 25  1  0  0  0  0
  9 11  2  0  0  0  0
  9 12  1  0  0  0  0
 10 26  1  0  0  0  0
 10 27  1  0  0  0  0
 11 14  1  0  0  0  0
 11 29  1  0  0  0  0
 12 15  2  0  0  0  0
 12 30  1  0  0  0  0
 14 16  2  0  0  0  0
 14 31  1  0  0  0  0
 15 16  1  0  0  0  0
 15 32  1  0  0  0  0
 16 33  1  0  0  0  0
 18 19  1  0  0  0  0
 18 20  2  0  0  0  0
 19 21  2  0  0  0  0
 19 22  1  0  0  0  0
 20 36  1  0  0  0  0
 21 23  1  0  0  0  0
 21 37  1  0  0  0  0
 22 24  2  0  0  0  0
 22 38  1  0  0  0  0
 23 39  1  0  0  0  0
 24 40  1  0  0  0  0
M  END
> <PUBCHEM_COMPOUND_CID>
87406410

> <PUBCHEM_CONFORMER_RMSD>
0.8

> <PUBCHEM_CONFORMER_DIVERSEORDER>
1
57
48
64
15
78
18
32
5
76
71
38
9
39
72
75
70
56
59
42
58
46
7
68
54
53
62
67
43
30
27
3
49
60
31
65
73
19
16
40
17
37
63
21
24
28
41
69
22
74
45
26
79
35
34
20
55
33
66
23
13
10
52
6
29
77
8
4
50
44
25
47
14
11
2
61
12
36
51

> <PUBCHEM_MMFF94_PARTIAL_CHARGES>
37
1 -0.08
10 0.28
11 -0.15
12 -0.15
13 0.69
14 -0.15
15 -0.15
16 -0.15
17 0.44
18 0.17
19 0.05
2 -0.68
20 -0.11
21 -0.15
22 -0.15
23 0.16
24 0.16
28 0.37
29 0.15
3 -0.57
30 0.15
31 0.15
32 0.15
33 0.15
34 0.37
35 0.4
36 0.15
37 0.15
38 0.15
39 0.15
4 -0.73
40 0.15
5 -0.49
6 -0.57
7 -0.62
8 0.44
9 -0.14

> <PUBCHEM_EFFECTIVE_ROTOR_COUNT>
7

> <PUBCHEM_PHARMACOPHORE_FEATURES>
9
1 2 acceptor
1 2 donor
1 3 acceptor
1 4 donor
1 5 donor
1 7 acceptor
5 1 6 17 18 20 rings
6 7 19 21 22 23 24 rings
6 9 11 12 14 15 16 rings

> <PUBCHEM_HEAVY_ATOM_COUNT>
24

> <PUBCHEM_ATOM_DEF_STEREO_COUNT>
1

> <PUBCHEM_ATOM_UDEF_STEREO_COUNT>
0

> <PUBCHEM_BOND_DEF_STEREO_COUNT>
0

> <PUBCHEM_BOND_UDEF_STEREO_COUNT>
0

> <PUBCHEM_ISOTOPIC_ATOM_COUNT>
0

> <PUBCHEM_COMPONENT_COUNT>
1

> <PUBCHEM_CACTVS_TAUTO_COUNT>
5

> <PUBCHEM_CONFORMER_ID>
0535B74A00000001

> <PUBCHEM_MMFF94_ENERGY>
55.006

> <PUBCHEM_FEATURE_SELFOVERLAP>
45.729

> <PUBCHEM_SHAPE_FINGERPRINT>
10692045 39 12247415448663658124
10981352 41 18201717401239748167
11056379 131 18042120977902127061
11089746 13 8790616904730971800
11128504 68 16805329876904475622
11524674 6 17632574934233268839
117089 54 17627808413688076678
11796584 16 18120370952692024462
12342043 65 18271527503109888436
12422481 6 17846501452324160343
12616971 3 16774069653162152460
12623949 98 18271531978344556910
12730499 353 18201154455929193784
13073987 5 18131350795607534096
13402501 40 18413394219893248383
13533116 47 17775567550357844594
13782708 43 18272649039467394431
13914758 101 16916784038630422305
13955234 65 17917701440620176496
14216079 64 18410575098524375215
14251732 14 18260559908898158966
14251740 57 18408606980678020884
14251751 18 18337105662520297482
14251764 30 18411421700321976469
14341114 176 18343021107933862665
14347332 77 18041276565381584375
14347424 109 17703791409679476681
14528608 73 14923951132528311294
14556957 393 15213300786085270095
14910302 57 18334571330518749710
15352257 5 18412829088038112943
15510800 12 17915746362759490430
17844677 252 18410293583985818552
17909252 39 18338515231926625802
1813 80 17603581958779274261
18222031 100 17530964678651878725
193927 3 17846218796352248596
20554085 129 10807656628511480607
20645477 70 18201999911540232552
21267235 1 18114186367785270755
21315759 148 18343301496093839657
21623969 137 17917709089434742734
21641784 216 16298382440316601837
22289505 5 11097856272811883742
22393880 68 18115580440158056594
2297311 6 18260833674798989165
2303208 19 18410294696708798081
23522609 53 18046661981856807621
23559900 14 18336536136439423524
239999 70 18412259545879091408
2748736 6 10519708852365320219
3004659 81 17676491674360071533
3089732 80 18411985736728674175
312425 54 18271813427952176121
34797466 226 18041002868543654972
439807 62 18262241014774632478
46194498 28 18410856556242037308
465052 167 18131073701898054078
5104073 3 18130784525570416768
59755656 215 18334853866943609391
86090 222 17559975250360383254
8863177 126 18341894095329861838

> <PUBCHEM_SHAPE_MULTIPOLES>
466.1
17.93
2.88
1.39
9.01
0.21
-0.28
10.99
0.43
-0.58
-0.34
-1.97
-0.21
3.25

> <PUBCHEM_SHAPE_SELFOVERLAP>
990.916

> <PUBCHEM_SHAPE_VOLUME>
260.5

> <PUBCHEM_COORDINATE_TYPE>
2
5
10

$$$$
87406530
  -OEChem-05102415103D

 42 44  0     1  0  0  0  0  0999 V2000
   -1.9770   -2.3221    1.8593 S   0  0  0  0  0  0  0  0  0  0  0  0
    0.7511    0.1187   -1.0604 O   0  0  0  0  0  0  0  0  0  0  0  0
    2.3566   -1.2695   -0.1448 N   0  0  0  0  0  0  0  0  0  0  0  0
    0.1853   -1.4797    0.5630 N   0  0  0  0  0  0  0  0  0  0  0  0
   -1.9791   -0.4315    0.0963 N   0  0  0  0  0  0  0  0  0  0  0  0
   -6.4315    1.8065   -0.9422 N   0  0  0  0  0  0  0  0  0  0  0  0
    3.4764   -0.7472   -0.8957 C   0  0  2  0  0  0  0  0  0  0  0  0
    4.5196   -1.8383   -1.1911 C   0  0  0  0  0  0  0  0  0  0  0  0
    4.0928    0.4364   -0.1778 C   0  0  0  0  0  0  0  0  0  0  0  0
    3.9202   -3.0403   -1.9110 C   0  0  0  0  0  0  0  0  0  0  0  0
    4.1347    0.4623    1.2161 C   0  0  0  0  0  0  0  0  0  0  0  0
    4.6182    1.5000   -0.9113 C   0  0  0  0  0  0  0  0  0  0  0  0
    1.0522   -0.7872   -0.2869 C   0  0  0  0  0  0  0  0  0  0  0  0
    4.7021    1.5520    1.8768 C   0  0  0  0  0  0  0  0  0  0  0  0
    5.1856    2.5897   -0.2508 C   0  0  0  0  0  0  0  0  0  0  0  0
    5.2275    2.6158    1.1433 C   0  0  0  0  0  0  0  0  0  0  0  0
   -1.2083   -1.2950    0.7196 C   0  0  0  0  0  0  0  0  0  0  0  0
   -3.2760   -0.5850    0.5459 C   0  0  0  0  0  0  0  0  0  0  0  0
   -4.3461    0.2260    0.0414 C   0  0  0  0  0  0  0  0  0  0  0  0
   -3.4712   -1.5601    1.5015 C   0  0  0  0  0  0  0  0  0  0  0  0
   -5.6395   -0.2813   -0.0154 C   0  0  0  0  0  0  0  0  0  0  0  0
   -4.0942    1.5227   -0.3930 C   0  0  0  0  0  0  0  0  0  0  0  0
   -6.6378    0.5419   -0.5110 C   0  0  0  0  0  0  0  0  0  0  0  0
   -5.1617    2.2652   -0.8717 C   0  0  0  0  0  0  0  0  0  0  0  0
    3.0757   -0.3907   -1.8542 H   0  0  0  0  0  0  0  0  0  0  0  0
    4.9801   -2.1860   -0.2574 H   0  0  0  0  0  0  0  0  0  0  0  0
    5.3285   -1.4217   -1.8040 H   0  0  0  0  0  0  0  0  0  0  0  0
    2.5346   -1.9747    0.5644 H   0  0  0  0  0  0  0  0  0  0  0  0
    3.4323   -2.7357   -2.8424 H   0  0  0  0  0  0  0  0  0  0  0  0
    4.7084   -3.7577   -2.1612 H   0  0  0  0  0  0  0  0  0  0  0  0
    3.1853   -3.5594   -1.2882 H   0  0  0  0  0  0  0  0  0  0  0  0
    3.7490   -0.3579    1.8149 H   0  0  0  0  0  0  0  0  0  0  0  0
    4.5934    1.4911   -1.9977 H   0  0  0  0  0  0  0  0  0  0  0  0
    4.7384    1.5708    2.9621 H   0  0  0  0  0  0  0  0  0  0  0  0
    5.5954    3.4177   -0.8218 H   0  0  0  0  0  0  0  0  0  0  0  0
    5.6702    3.4638    1.6575 H   0  0  0  0  0  0  0  0  0  0  0  0
    0.5791   -2.2098    1.1500 H   0  0  0  0  0  0  0  0  0  0  0  0
   -4.3742   -1.8629    2.0134 H   0  0  0  0  0  0  0  0  0  0  0  0
   -5.8947   -1.2895    0.2933 H   0  0  0  0  0  0  0  0  0  0  0  0
   -3.1023    1.9621   -0.3634 H   0  0  0  0  0  0  0  0  0  0  0  0
   -7.6628    0.1925   -0.5802 H   0  0  0  0  0  0  0  0  0  0  0  0
   -5.0184    3.2823   -1.2215 H   0  0  0  0  0  0  0  0  0  0  0  0
  1 17  1  0  0  0  0
  1 20  1  0  0  0  0
  2 13  2  0  0  0  0
  3  7  1  0  0  0  0
  3 13  1  0  0  0  0
  3 28  1  0  0  0  0
  4 13  1  0  0  0  0
  4 17  1  0  0  0  0
  4 37  1  0  0  0  0
  5 17  2  0  0  0  0
  5 18  1  0  0  0  0
  6 23  2  0  0  0  0
  6 24  1  0  0  0  0
  7  8  1  0  0  0  0
  7  9  1  0  0  0  0
  7 25  1  0  0  0  0
  8 10  1  0  0  0  0
  8 26  1  0  0  0  0
  8 27  1  0  0  0  0
  9 11  2  0  0  0  0
  9 12  1  0  0  0  0
 10 29  1  0  0  0  0
 10 30  1  0  0  0  0
 10 31  1  0  0  0  0
 11 14  1  0  0  0  0
 11 32  1  0  0  0  0
 12 15  2  0  0  0  0
 12 33  1  0  0  0  0
 14 16  2  0  0  0  0
 14 34  1  0  0  0  0
 15 16  1  0  0  0  0
 15 35  1  0  0  0  0
 16 36  1  0  0  0  0
 18 19  1  0  0  0  0
 18 20  2  0  0  0  0
 19 21  2  0  0  0  0
 19 22  1  0  0  0  0
 20 38  1  0  0  0  0
 21 23  1  0  0  0  0
 21 39  1  0  0  0  0
 22 24  2  0  0  0  0
 22 40  1  0  0  0  0
 23 41  1  0  0  0  0
 24 42  1  0  0  0  0
M  END
> <PUBCHEM_COMPOUND_CID>
87406530

> <PUBCHEM_CONFORMER_RMSD>
0.8

> <PUBCHEM_CONFORMER_DIVERSEORDER>
1
59
13
25
63
61
32
42
71
11
40
69
70
35
18
9
46
31
68
64
41
30
6
22
48
37
49
52
23
15
67
73
36
12
60
45
58
38
44
65
66
50
3
72
53
43
28
33
56
51
21
55
47
39
34
26
29
16
19
14
27
62
7
2
5
4
54
20
24
8
57
17
10

> <PUBCHEM_MMFF94_PARTIAL_CHARGES>
34
1 -0.08
11 -0.15
12 -0.15
13 0.69
14 -0.15
15 -0.15
16 -0.15
17 0.44
18 0.17
19 0.05
2 -0.57
20 -0.11
21 -0.15
22 -0.15
23 0.16
24 0.16
28 0.37
3 -0.73
32 0.15
33 0.15
34 0.15
35 0.15
36 0.15
37 0.37
38 0.15
39 0.15
4 -0.49
40 0.15
41 0.15
42 0.15
5 -0.57
6 -0.62
7 0.44
9 -0.14

> <PUBCHEM_EFFECTIVE_ROTOR_COUNT>
7

> <PUBCHEM_PHARMACOPHORE_FEATURES>
8
1 10 hydrophobe
1 2 acceptor
1 3 donor
1 4 donor
1 6 acceptor
5 1 5 17 18 20 rings
6 6 19 21 22 23 24 rings
6 9 11 12 14 15 16 rings

> <PUBCHEM_HEAVY_ATOM_COUNT>
24

> <PUBCHEM_ATOM_DEF_STEREO_COUNT>
1

> <PUBCHEM_ATOM_UDEF_STEREO_COUNT>
0

> <PUBCHEM_BOND_DEF_STEREO_COUNT>
0

> <PUBCHEM_BOND_UDEF_STEREO_COUNT>
0

> <PUBCHEM_ISOTOPIC_ATOM_COUNT>
0

> <PUBCHEM_COMPONENT_COUNT>
1

> <PUBCHEM_CACTVS_TAUTO_COUNT>
5

> <PUBCHEM_CONFORMER_ID>
0535B7C200000001

> <PUBCHEM_MMFF94_ENERGY>
52.6651

> <PUBCHEM_FEATURE_SELFOVERLAP>
40.649

> <PUBCHEM_SHAPE_FINGERPRINT>
10 15 17676212407149862913
10692045 39 17459175309653373386
11089746 13 18335980874561682634
11128504 68 15051737520696374184
12107183 9 17749935688320719448
12403259 415 18336560368628875531
12422481 6 15574978530028977247
12596602 18 16515684485212614265
12616971 3 16773250499682810347
12633257 1 16588026835439647167
13402501 40 18410005559347641681
13533116 47 18131356271674609110
13878862 14 18272075081523206660
13911987 19 17561089145864358339
14251751 18 10519719868977344768
14251764 30 9799695913146130049
14347332 77 12319468679188463649
14528608 73 16988848310382211408
14556957 393 16702030768376696313
14739800 52 18115009849521386289
14951699 99 17822857605909827556
20157964 124 18202845448344934070
21033648 29 18335704974415228842
21859007 373 18187639142534976038
21968339 14 17775278366384349144
22289505 5 18343588439007029308
23516275 100 18336255851111606524
23559900 14 18334588918995753150
2748736 6 18114732777255717525
2838139 119 18340474617360252645
2916195 48 18334853927051682209
341906 21 18041284356557767384
3459 39 17749931315949546349
34797466 226 18272934908316831575
3680242 22 17748822986332016097
44249763 50 18129086999828293201
44317340 157 18273498944754579807
465052 167 10665219337839497120
495365 180 18343582937075172066
5104073 3 17385723586759114627
5223283 242 17124254013910442909
59682541 52 17774718662993556839
60123966 16 18272093764736277166
6371380 46 18187650155100986226
653340 110 17751350686603366501
7237137 82 16916213520395967479
9981440 41 17749111072201990203

> <PUBCHEM_SHAPE_MULTIPOLES>
471.96
17.46
3.07
1.62
11.19
0.01
-0.34
10.99
2.58
-2.75
0.32
-1.29
-0.6
4.46

> <PUBCHEM_SHAPE_SELFOVERLAP>
997.958

> <PUBCHEM_SHAPE_VOLUME>
265.8

> <PUBCHEM_COORDINATE_TYPE>
2
5
10

$$$$
87406347
  -OEChem-05102415103D

 40 42  0     1  0  0  0  0  0999 V2000
    2.2004   -2.3444   -1.8023 S   0  0  0  0  0  0  0  0  0  0  0  0
   -4.4516   -2.5970    0.3733 O   0  0  0  0  0  0  0  0  0  0  0  0
   -0.4957    0.2570    1.0061 O   0  0  0  0  0  0  0  0  0  0  0  0
   -2.1258   -1.1093    0.1020 N   0  0  0  0  0  0  0  0  0  0  0  0
    0.0457   -1.4021   -0.5639 N   0  0  0  0  0  0  0  0  0  0  0  0
   -4.8429   -1.5097    2.3588 N   0  0  0  0  0  0  0  0  0  0  0  0
    2.2333   -0.4062   -0.0922 N   0  0  0  0  0  0  0  0  0  0  0  0
    6.7354    1.7265    0.9541 N   0  0  0  0  0  0  0  0  0  0  0  0
   -3.2431   -0.5316    0.8226 C   0  0  1  0  0  0  0  0  0  0  0  0
   -3.8945    0.5831    0.0758 C   0  0  0  0  0  0  0  0  0  0  0  0
   -4.4815    1.6393    0.7723 C   0  0  0  0  0  0  0  0  0  0  0  0
   -3.9165    0.5695   -1.3188 C   0  0  0  0  0  0  0  0  0  0  0  0
   -4.2139   -1.6680    1.1419 C   0  0  0  0  0  0  0  0  0  0  0  0
   -0.8125   -0.6608    0.2531 C   0  0  0  0  0  0  0  0  0  0  0  0
   -5.0906    2.6821    0.0742 C   0  0  0  0  0  0  0  0  0  0  0  0
   -4.5256    1.6123   -2.0170 C   0  0  0  0  0  0  0  0  0  0  0  0
   -5.1127    2.6686   -1.3204 C   0  0  0  0  0  0  0  0  0  0  0  0
    3.5316   -0.6107   -0.5171 C   0  0  0  0  0  0  0  0  0  0  0  0
    1.4463   -1.2634   -0.7035 C   0  0  0  0  0  0  0  0  0  0  0  0
    4.6181    0.1819   -0.0181 C   0  0  0  0  0  0  0  0  0  0  0  0
    3.7115   -1.6175   -1.4423 C   0  0  0  0  0  0  0  0  0  0  0  0
    5.8946   -0.3618    0.0727 C   0  0  0  0  0  0  0  0  0  0  0  0
    4.3990    1.4971    0.3765 C   0  0  0  0  0  0  0  0  0  0  0  0
    6.9099    0.4447    0.5611 C   0  0  0  0  0  0  0  0  0  0  0  0
    5.4811    2.2206    0.8512 C   0  0  0  0  0  0  0  0  0  0  0  0
   -2.8403   -0.1431    1.7673 H   0  0  0  0  0  0  0  0  0  0  0  0
   -2.3062   -1.8624   -0.5557 H   0  0  0  0  0  0  0  0  0  0  0  0
   -4.4717    1.6632    1.8587 H   0  0  0  0  0  0  0  0  0  0  0  0
   -3.4819   -0.2456   -1.8907 H   0  0  0  0  0  0  0  0  0  0  0  0
   -5.5479    3.5045    0.6165 H   0  0  0  0  0  0  0  0  0  0  0  0
   -4.5460    1.6003   -3.1028 H   0  0  0  0  0  0  0  0  0  0  0  0
   -0.3610   -2.1359   -1.1374 H   0  0  0  0  0  0  0  0  0  0  0  0
   -5.5877    3.4801   -1.8639 H   0  0  0  0  0  0  0  0  0  0  0  0
    4.6124   -1.9611   -1.9315 H   0  0  0  0  0  0  0  0  0  0  0  0
   -4.6531   -0.7253    2.9741 H   0  0  0  0  0  0  0  0  0  0  0  0
   -5.5255   -2.1866    2.6834 H   0  0  0  0  0  0  0  0  0  0  0  0
    6.1238   -1.3855   -0.2041 H   0  0  0  0  0  0  0  0  0  0  0  0
    3.4214    1.9648    0.3193 H   0  0  0  0  0  0  0  0  0  0  0  0
    7.9228    0.0671    0.6558 H   0  0  0  0  0  0  0  0  0  0  0  0
    5.3635    3.2509    1.1706 H   0  0  0  0  0  0  0  0  0  0  0  0
  1 19  1  0  0  0  0
  1 21  1  0  0  0  0
  2 13  2  0  0  0  0
  3 14  2  0  0  0  0
  4  9  1  0  0  0  0
  4 14  1  0  0  0  0
  4 27  1  0  0  0  0
  5 14  1  0  0  0  0
  5 19  1  0  0  0  0
  5 32  1  0  0  0  0
  6 13  1  0  0  0  0
  6 35  1  0  0  0  0
  6 36  1  0  0  0  0
  7 18  1  0  0  0  0
  7 19  2  0  0  0  0
  8 24  2  0  0  0  0
  8 25  1  0  0  0  0
  9 10  1  0  0  0  0
  9 13  1  0  0  0  0
  9 26  1  0  0  0  0
 10 11  2  0  0  0  0
 10 12  1  0  0  0  0
 11 15  1  0  0  0  0
 11 28  1  0  0  0  0
 12 16  2  0  0  0  0
 12 29  1  0  0  0  0
 15 17  2  0  0  0  0
 15 30  1  0  0  0  0
 16 17  1  0  0  0  0
 16 31  1  0  0  0  0
 17 33  1  0  0  0  0
 18 20  1  0  0  0  0
 18 21  2  0  0  0  0
 20 22  2  0  0  0  0
 20 23  1  0  0  0  0
 21 34  1  0  0  0  0
 22 24  1  0  0  0  0
 22 37  1  0  0  0  0
 23 25  2  0  0  0  0
 23 38  1  0  0  0  0
 24 39  1  0  0  0  0
 25 40  1  0  0  0  0
M  END
> <PUBCHEM_COMPOUND_CID>
87406347

> <PUBCHEM_CONFORMER_RMSD>
0.8

> <PUBCHEM_CONFORMER_DIVERSEORDER>
1
89
8
30
56
66
15
5
74
3
69
87
33
60
57
48
49
10
38
51
22
21
24
70
34
91
82
18
59
62
31
44
77
84
42
45
72
65
43
73
12
68
11
86
75
39
64
54
71
16
52
79
29
53
78
63
35
2
55
27
20
28
90
83
17
46
80
41
67
36
14
13
61
25
7
58
76
88
50
85
4
40
6
81
26
23
32
37
9
47
19

> <PUBCHEM_MMFF94_PARTIAL_CHARGES>
39
1 -0.08
10 -0.14
11 -0.15
12 -0.15
13 0.57
14 0.69
15 -0.15
16 -0.15
17 -0.15
18 0.17
19 0.44
2 -0.57
20 0.05
21 -0.11
22 -0.15
23 -0.15
24 0.16
25 0.16
27 0.37
28 0.15
29 0.15
3 -0.57
30 0.15
31 0.15
32 0.37
33 0.15
34 0.15
35 0.37
36 0.37
37 0.15
38 0.15
39 0.15
4 -0.73
40 0.15
5 -0.49
6 -0.8
7 -0.57
8 -0.62
9 0.5

> <PUBCHEM_EFFECTIVE_ROTOR_COUNT>
7

> <PUBCHEM_PHARMACOPHORE_FEATURES>
9
1 2 acceptor
1 3 acceptor
1 4 donor
1 5 donor
1 6 donor
1 8 acceptor
5 1 7 18 19 21 rings
6 10 11 12 15 16 17 rings
6 8 20 22 23 24 25 rings

> <PUBCHEM_HEAVY_ATOM_COUNT>
25

> <PUBCHEM_ATOM_DEF_STEREO_COUNT>
1

> <PUBCHEM_ATOM_UDEF_STEREO_COUNT>
0

> <PUBCHEM_BOND_DEF_STEREO_COUNT>
0

> <PUBCHEM_BOND_UDEF_STEREO_COUNT>
0

> <PUBCHEM_ISOTOPIC_ATOM_COUNT>
0

> <PUBCHEM_COMPONENT_COUNT>
1

> <PUBCHEM_CACTVS_TAUTO_COUNT>
15

> <PUBCHEM_CONFORMER_ID>
0535B70B00000001

> <PUBCHEM_MMFF94_ENERGY>
61.8007

> <PUBCHEM_FEATURE_SELFOVERLAP>
45.725

> <PUBCHEM_SHAPE_FINGERPRINT>
10291535 26 18410856521750462401
10319926 262 17894635846526327794
10577160 103 18264754636580276277
10763959 59 18412265030700424396
10835480 77 18271243824445897536
12403259 118 18114184172054662956
12403259 415 18340499901648251046
12422481 6 18113333124675922668
12596602 18 17676202503187432680
12616971 3 16271657680321528206
12769317 202 17988918968839994776
12778500 126 17823407216105758192
13073987 5 18186238420202843211
13103583 49 13767930074403971605
13402501 40 18410567367029672908
13941219 33 7925637751953664621
14251764 30 8862939498482677804
14950920 106 13623828098117283197
15081414 286 17917724517284291552
15799311 1 13038916511921084310
16990366 60 16955932390434764251
16993427 108 14636878616069737385
17780758 139 12468637197257696869
17844677 252 18261681462145103904
19489759 90 17821728364090744843
21033648 144 18339360756325817093
21033648 29 18334867094878222934
21315763 129 18335421322053791624
23081809 10 16371012918810080910
23559900 14 18198348342666566782
2748736 6 18201990045884945880
2838139 119 18272362062590156484
2916195 48 18411138060734697690
312425 54 17385719171701454642
32027 91 17984714315874709286
484985 159 7853579032840001021
5104073 3 18186803539040753275
5364581 5 18189341332363824481
5969126 39 18337666546963935831
6034566 193 16702029634779012375
6697151 62 17910106907211627126

> <PUBCHEM_SHAPE_MULTIPOLES>
481.69
18.25
2.89
1.62
13.45
0.41
-0.19
10.27
2.65
-1.83
-0.28
-2
-0.34
4.3

> <PUBCHEM_SHAPE_SELFOVERLAP>
1029.189

> <PUBCHEM_SHAPE_VOLUME>
268

> <PUBCHEM_COORDINATE_TYPE>
2
5
10

$$$$
87406371
  -OEChem-05102415103D

 43 45  0     1  0  0  0  0  0999 V2000
   -2.1255    2.4838   -1.5871 S   0  0  0  0  0  0  0  0  0  0  0  0
    4.8313    2.0033    0.3476 O   0  0  0  0  0  0  0  0  0  0  0  0
    0.4292   -0.3841    1.0910 O   0  0  0  0  0  0  0  0  0  0  0  0
    2.1124    1.0010    0.3249 N   0  0  0  0  0  0  0  0  0  0  0  0
   -0.0285    1.3971   -0.3678 N   0  0  0  0  0  0  0  0  0  0  0  0
   -2.2525    0.4300   -0.0225 N   0  0  0  0  0  0  0  0  0  0  0  0
   -6.8330   -1.6487    0.7574 N   0  0  0  0  0  0  0  0  0  0  0  0
    3.1997    0.3405    1.0315 C   0  0  1  0  0  0  0  0  0  0  0  0
    3.7913   -0.7623    0.2202 C   0  0  0  0  0  0  0  0  0  0  0  0
    4.2365    1.3849    1.4840 C   0  0  0  0  0  0  0  0  0  0  0  0
    4.2673   -1.9126    0.8492 C   0  0  0  0  0  0  0  0  0  0  0  0
    3.8685   -0.6435   -1.1674 C   0  0  0  0  0  0  0  0  0  0  0  0
    0.7889    0.5762    0.4141 C   0  0  0  0  0  0  0  0  0  0  0  0
    4.8205   -2.9441    0.0908 C   0  0  0  0  0  0  0  0  0  0  0  0
    4.4218   -1.6751   -1.9262 C   0  0  0  0  0  0  0  0  0  0  0  0
    4.8977   -2.8254   -1.2970 C   0  0  0  0  0  0  0  0  0  0  0  0
   -1.4281    1.3070   -0.5511 C   0  0  0  0  0  0  0  0  0  0  0  0
   -3.5335    0.6995   -0.4630 C   0  0  0  0  0  0  0  0  0  0  0  0
    5.7997    2.9693    0.7296 C   0  0  0  0  0  0  0  0  0  0  0  0
   -4.6524   -0.0968   -0.0491 C   0  0  0  0  0  0  0  0  0  0  0  0
   -3.6634    1.7744   -1.3173 C   0  0  0  0  0  0  0  0  0  0  0  0
   -5.9167    0.4737    0.0498 C   0  0  0  0  0  0  0  0  0  0  0  0
   -4.4772   -1.4423    0.2548 C   0  0  0  0  0  0  0  0  0  0  0  0
   -6.9645   -0.3379    0.4539 C   0  0  0  0  0  0  0  0  0  0  0  0
   -5.5895   -2.1682    0.6496 C   0  0  0  0  0  0  0  0  0  0  0  0
    2.7609   -0.0948    1.9392 H   0  0  0  0  0  0  0  0  0  0  0  0
    3.7474    2.1516    2.0976 H   0  0  0  0  0  0  0  0  0  0  0  0
    5.0178    0.9016    2.0834 H   0  0  0  0  0  0  0  0  0  0  0  0
    2.3367    1.7678   -0.3023 H   0  0  0  0  0  0  0  0  0  0  0  0
    4.2153   -2.0173    1.9297 H   0  0  0  0  0  0  0  0  0  0  0  0
    3.5200    0.2446   -1.6870 H   0  0  0  0  0  0  0  0  0  0  0  0
    5.1918   -3.8396    0.5806 H   0  0  0  0  0  0  0  0  0  0  0  0
    4.4851   -1.5816   -3.0064 H   0  0  0  0  0  0  0  0  0  0  0  0
    5.3293   -3.6283   -1.8874 H   0  0  0  0  0  0  0  0  0  0  0  0
    0.4115    2.1590   -0.8765 H   0  0  0  0  0  0  0  0  0  0  0  0
    5.3365    3.7642    1.3222 H   0  0  0  0  0  0  0  0  0  0  0  0
    6.6089    2.4987    1.2964 H   0  0  0  0  0  0  0  0  0  0  0  0
    6.2211    3.4113   -0.1772 H   0  0  0  0  0  0  0  0  0  0  0  0
   -4.5422    2.1766   -1.8021 H   0  0  0  0  0  0  0  0  0  0  0  0
   -6.1125    1.5203   -0.1579 H   0  0  0  0  0  0  0  0  0  0  0  0
   -3.5106   -1.9312    0.1878 H   0  0  0  0  0  0  0  0  0  0  0  0
   -7.9696    0.0594    0.5509 H   0  0  0  0  0  0  0  0  0  0  0  0
   -5.5065   -3.2215    0.8966 H   0  0  0  0  0  0  0  0  0  0  0  0
  1 17  1  0  0  0  0
  1 21  1  0  0  0  0
  2 10  1  0  0  0  0
  2 19  1  0  0  0  0
  3 13  2  0  0  0  0
  4  8  1  0  0  0  0
  4 13  1  0  0  0  0
  4 29  1  0  0  0  0
  5 13  1  0  0  0  0
  5 17  1  0  0  0  0
  5 35  1  0  0  0  0
  6 17  2  0  0  0  0
  6 18  1  0  0  0  0
  7 24  2  0  0  0  0
  7 25  1  0  0  0  0
  8  9  1  0  0  0  0
  8 10  1  0  0  0  0
  8 26  1  0  0  0  0
  9 11  2  0  0  0  0
  9 12  1  0  0  0  0
 10 27  1  0  0  0  0
 10 28  1  0  0  0  0
 11 14  1  0  0  0  0
 11 30  1  0  0  0  0
 12 15  2  0  0  0  0
 12 31  1  0  0  0  0
 14 16  2  0  0  0  0
 14 32  1  0  0  0  0
 15 16  1  0  0  0  0
 15 33  1  0  0  0  0
 16 34  1  0  0  0  0
 18 20  1  0  0  0  0
 18 21  2  0  0  0  0
 19 36  1  0  0  0  0
 19 37  1  0  0  0  0
 19 38  1  0  0  0  0
 20 22  2  0  0  0  0
 20 23  1  0  0  0  0
 21 39  1  0  0  0  0
 22 24  1  0  0  0  0
 22 40  1  0  0  0  0
 23 25  2  0  0  0  0
 23 41  1  0  0  0  0
 24 42  1  0  0  0  0
 25 43  1  0  0  0  0
M  END
> <PUBCHEM_COMPOUND_CID>
87406371

> <PUBCHEM_CONFORMER_RMSD>
0.8

> <PUBCHEM_CONFORMER_DIVERSEORDER>
1
39
26
42
38
99
83
53
95
69
49
93
119
57
80
113
114
79
108
111
97
115
12
71
52
51
29
30
102
90
37
75
54
67
98
73
117
16
109
112
15
77
14
76
36
88
17
92
78
110
58
32
89
31
116
81
85
107
103
70
34
60
7
25
50
66
74
94
118
21
56
8
55
101
44
28
91
13
106
96
48
23
84
65
10
33
41
62
4
68
45
82
40
72
5
18
20
87
6
19
86
61
46
43
3
22
24
35
11
27
2
100
9
104
63
59
47
64
105

> <PUBCHEM_MMFF94_PARTIAL_CHARGES>
37
1 -0.08
10 0.28
11 -0.15
12 -0.15
13 0.69
14 -0.15
15 -0.15
16 -0.15
17 0.44
18 0.17
19 0.28
2 -0.56
20 0.05
21 -0.11
22 -0.15
23 -0.15
24 0.16
25 0.16
29 0.37
3 -0.57
30 0.15
31 0.15
32 0.15
33 0.15
34 0.15
35 0.37
39 0.15
4 -0.73
40 0.15
41 0.15
42 0.15
43 0.15
5 -0.49
6 -0.57
7 -0.62
8 0.44
9 -0.14

> <PUBCHEM_EFFECTIVE_ROTOR_COUNT>
8

> <PUBCHEM_PHARMACOPHORE_FEATURES>
8
1 2 acceptor
1 3 acceptor
1 4 donor
1 5 donor
1 7 acceptor
5 1 6 17 18 21 rings
6 7 20 22 23 24 25 rings
6 9 11 12 14 15 16 rings

> <PUBCHEM_HEAVY_ATOM_COUNT>
25

> <PUBCHEM_ATOM_DEF_STEREO_COUNT>
1

> <PUBCHEM_ATOM_UDEF_STEREO_COUNT>
0

> <PUBCHEM_BOND_DEF_STEREO_COUNT>
0

> <PUBCHEM_BOND_UDEF_STEREO_COUNT>
0

> <PUBCHEM_ISOTOPIC_ATOM_COUNT>
0

> <PUBCHEM_COMPONENT_COUNT>
1

> <PUBCHEM_CACTVS_TAUTO_COUNT>
5

> <PUBCHEM_CONFORMER_ID>
0535B72300000001

> <PUBCHEM_MMFF94_ENERGY>
60.1332

> <PUBCHEM_FEATURE_SELFOVERLAP>
40.652

> <PUBCHEM_SHAPE_FINGERPRINT>
10369192 42 18265324200900170260
10981352 41 18272368707147494671
11056379 131 17968657100002487909
11524674 6 17775563110095481647
117089 54 17627244351190504078
11796584 16 18046905970753954502
12422481 6 15410343130784773993
12616971 3 16988552472876594532
12623949 98 18342464750370086726
12730499 353 18343300410005281160
13073987 5 18272933808235849121
13402501 40 18411987927536684415
13533116 47 17918275350522872442
13782708 43 18342175536342557727
13911882 115 18337111262724693434
13955234 65 18059846286652710776
14216079 64 18409168810346695039
14251740 57 18335424568975195332
14251764 30 18410578362176812959
14341114 176 18413390938817367249
14347332 77 17968094158211349711
14347424 109 17989207023347939457
14461889 52 18335134358230105768
14556957 393 14490464267174350615
14910302 57 18187643578951369079
15352257 5 18411704279200701999
15537594 2 16702299078919713772
16990366 60 18193270794513514650
17844677 252 18337954493427706673
17909252 39 18337108943527412570
1813 80 17458343057013927341
18222031 100 17385444301967836949
20645477 70 18272651217252852202
21130935 74 18343024402543277763
21315759 148 18412546526576867561
21623969 137 18131630067281683302
220451 1 17274821398005299629
2303208 19 18408605834090161289
23081809 10 17060614499975035789
23522609 53 17972915525295188645
23559900 14 18264197033360270292
239999 70 18412260619610593186
249057 25 13551461545353560437
3004659 81 17530971297676218103
3089732 80 18410859824137448151
312423 11 17917434164525972664
312425 54 18342746213115698411
439807 62 18188495657492707855
46194498 28 18411982434647435796
465052 167 18202005383023080622
5104073 3 18200871781728199593
54076057 127 17917998312911860522
8863177 126 18412545400921175247

> <PUBCHEM_SHAPE_MULTIPOLES>
486.68
18.62
3.24
1.4
14.78
0.21
-0.43
7.24
2.4
-4.1
-0.37
-1.3
-0.05
3.87

> <PUBCHEM_SHAPE_SELFOVERLAP>
1028.25

> <PUBCHEM_SHAPE_VOLUME>
274.1

> <PUBCHEM_COORDINATE_TYPE>
2
5
10

$$$$
56603818
  -OEChem-05102415103D

 43 45  0     1  0  0  0  0  0999 V2000
   -2.2265    2.7700    0.1642 S   0  0  0  0  0  0  0  0  0  0  0  0
    6.7105    1.4462    0.5593 O   0  0  0  0  0  0  0  0  0  0  0  0
   -0.2159   -1.4567    0.2901 O   0  0  0  0  0  0  0  0  0  0  0  0
    1.6781   -0.1448    0.4669 N   0  0  0  0  0  0  0  0  0  0  0  0
   -0.3563    0.8865    0.3042 N   0  0  0  0  0  0  0  0  0  0  0  0
   -2.7074    0.2310    0.0953 N   0  0  0  0  0  0  0  0  0  0  0  0
   -7.5648   -1.2286   -0.3358 N   0  0  0  0  0  0  0  0  0  0  0  0
    2.6297   -1.2410    0.5363 C   0  0  1  0  0  0  0  0  0  0  0  0
    3.9544   -0.8819   -0.0469 C   0  0  0  0  0  0  0  0  0  0  0  0
    2.7154   -1.7322    1.9890 C   0  0  0  0  0  0  0  0  0  0  0  0
    4.7228    0.1257    0.5362 C   0  0  0  0  0  0  0  0  0  0  0  0
    4.4247   -1.5529   -1.1758 C   0  0  0  0  0  0  0  0  0  0  0  0
    5.9616    0.4623   -0.0095 C   0  0  0  0  0  0  0  0  0  0  0  0
    0.3038   -0.3448    0.3470 C   0  0  0  0  0  0  0  0  0  0  0  0
    5.6634   -1.2162   -1.7216 C   0  0  0  0  0  0  0  0  0  0  0  0
    6.4320   -0.2088   -1.1383 C   0  0  0  0  0  0  0  0  0  0  0  0
   -1.7460    1.1228    0.1877 C   0  0  0  0  0  0  0  0  0  0  0  0
   -3.9182    0.8883   -0.0017 C   0  0  0  0  0  0  0  0  0  0  0  0
   -5.1549    0.1704   -0.1151 C   0  0  0  0  0  0  0  0  0  0  0  0
   -3.8593    2.2661    0.0184 C   0  0  0  0  0  0  0  0  0  0  0  0
   -5.2876   -1.0871    0.4633 C   0  0  0  0  0  0  0  0  0  0  0  0
   -6.2258    0.7292   -0.8038 C   0  0  0  0  0  0  0  0  0  0  0  0
    7.9668    1.7403   -0.0504 C   0  0  0  0  0  0  0  0  0  0  0  0
   -6.5022   -1.7394    0.3256 C   0  0  0  0  0  0  0  0  0  0  0  0
   -7.3984   -0.0044   -0.8849 C   0  0  0  0  0  0  0  0  0  0  0  0
    2.2013   -2.0691   -0.0437 H   0  0  0  0  0  0  0  0  0  0  0  0
    3.4235   -2.5633    2.0793 H   0  0  0  0  0  0  0  0  0  0  0  0
    1.7389   -2.0820    2.3422 H   0  0  0  0  0  0  0  0  0  0  0  0
    3.0395   -0.9376    2.6706 H   0  0  0  0  0  0  0  0  0  0  0  0
    2.0198    0.8075    0.5556 H   0  0  0  0  0  0  0  0  0  0  0  0
    4.3670    0.6600    1.4137 H   0  0  0  0  0  0  0  0  0  0  0  0
    3.8387   -2.3399   -1.6429 H   0  0  0  0  0  0  0  0  0  0  0  0
    6.0287   -1.7391   -2.6008 H   0  0  0  0  0  0  0  0  0  0  0  0
    7.3841    0.0019   -1.6133 H   0  0  0  0  0  0  0  0  0  0  0  0
    0.2076    1.7300    0.3611 H   0  0  0  0  0  0  0  0  0  0  0  0
   -4.6537    2.9980   -0.0300 H   0  0  0  0  0  0  0  0  0  0  0  0
   -4.4809   -1.5606    1.0137 H   0  0  0  0  0  0  0  0  0  0  0  0
   -6.1773    1.6980   -1.2896 H   0  0  0  0  0  0  0  0  0  0  0  0
    8.4271    2.5461    0.5307 H   0  0  0  0  0  0  0  0  0  0  0  0
    7.8404    2.1147   -1.0719 H   0  0  0  0  0  0  0  0  0  0  0  0
    8.6472    0.8833   -0.0034 H   0  0  0  0  0  0  0  0  0  0  0  0
   -6.6573   -2.7219    0.7592 H   0  0  0  0  0  0  0  0  0  0  0  0
   -8.2619    0.3848   -1.4144 H   0  0  0  0  0  0  0  0  0  0  0  0
  1 17  1  0  0  0  0
  1 20  1  0  0  0  0
  2 13  1  0  0  0  0
  2 23  1  0  0  0  0
  3 14  2  0  0  0  0
  4  8  1  0  0  0  0
  4 14  1  0  0  0  0
  4 30  1  0  0  0  0
  5 14  1  0  0  0  0
  5 17  1  0  0  0  0
  5 35  1  0  0  0  0
  6 17  2  0  0  0  0
  6 18  1  0  0  0  0
  7 24  2  0  0  0  0
  7 25  1  0  0  0  0
  8  9  1  0  0  0  0
  8 10  1  0  0  0  0
  8 26  1  0  0  0  0
  9 11  2  0  0  0  0
  9 12  1  0  0  0  0
 10 27  1  0  0  0  0
 10 28  1  0  0  0  0
 10 29  1  0  0  0  0
 11 13  1  0  0  0  0
 11 31  1  0  0  0  0
 12 15  2  0  0  0  0
 12 32  1  0  0  0  0
 13 16  2  0  0  0  0
 15 16  1  0  0  0  0
 15 33  1  0  0  0  0
 16 34  1  0  0  0  0
 18 19  1  0  0  0  0
 18 20  2  0  0  0  0
 19 21  2  0  0  0  0
 19 22  1  0  0  0  0
 20 36  1  0  0  0  0
 21 24  1  0  0  0  0
 21 37  1  0  0  0  0
 22 25  2  0  0  0  0
 22 38  1  0  0  0  0
 23 39  1  0  0  0  0
 23 40  1  0  0  0  0
 23 41  1  0  0  0  0
 24 42  1  0  0  0  0
 25 43  1  0  0  0  0
M  END
> <PUBCHEM_COMPOUND_CID>
56603818

> <PUBCHEM_CONFORMER_RMSD>
0.8

> <PUBCHEM_CONFORMER_DIVERSEORDER>
1
52
137
46
123
160
206
25
92
195
55
53
196
50
144
159
111
105
209
94
182
161
125
218
143
10
59
194
189
199
187
72
99
174
129
138
6
190
219
51
21
175
107
24
134
178
162
204
15
168
101
128
36
65
13
186
214
58
117
132
76
48
104
74
191
177
113
61
205
39
217
67
193
131
108
151
109
165
127
60
200
122
69
18
156
152
150
172
179
14
37
155
66
130
147
202
135
49
201
211
8
102
124
9
142
63
56
112
114
64
208
3
192
86
34
4
183
149
176
170
116
22
11
96
89
77
81
166
71
207
216
5
88
126
133
82
12
40
110
27
197
185
118
146
38
31
158
198
100
103
43
84
212
145
17
19
154
30
210
181
2
115
167
98
62
47
28
78
171
106
33
54
140
188
95
141
163
164
29
157
75
213
215
57
136
7
91
121
41
45
169
173
16
42
44
93
184
32
68
26
180
70
203
20
87
73
148
80
79
35
97
119
153
85
23
120
83
139
90

> <PUBCHEM_MMFF94_PARTIAL_CHARGES>
35
1 -0.08
11 -0.15
12 -0.15
13 0.08
14 0.69
15 -0.15
16 -0.15
17 0.44
18 0.17
19 0.05
2 -0.36
20 -0.11
21 -0.15
22 -0.15
23 0.28
24 0.16
25 0.16
3 -0.57
30 0.37
31 0.15
32 0.15
33 0.15
34 0.15
35 0.37
36 0.15
37 0.15
38 0.15
4 -0.73
42 0.15
43 0.15
5 -0.49
6 -0.57
7 -0.62
8 0.44
9 -0.14

> <PUBCHEM_EFFECTIVE_ROTOR_COUNT>
7

> <PUBCHEM_PHARMACOPHORE_FEATURES>
8
1 2 acceptor
1 3 acceptor
1 4 donor
1 5 donor
1 7 acceptor
5 1 6 17 18 20 rings
6 7 19 21 22 24 25 rings
6 9 11 12 13 15 16 rings

> <PUBCHEM_HEAVY_ATOM_COUNT>
25

> <PUBCHEM_ATOM_DEF_STEREO_COUNT>
1

> <PUBCHEM_ATOM_UDEF_STEREO_COUNT>
0

> <PUBCHEM_BOND_DEF_STEREO_COUNT>
0

> <PUBCHEM_BOND_UDEF_STEREO_COUNT>
0

> <PUBCHEM_ISOTOPIC_ATOM_COUNT>
0

> <PUBCHEM_COMPONENT_COUNT>
1

> <PUBCHEM_CACTVS_TAUTO_COUNT>
5

> <PUBCHEM_CONFORMER_ID>
035FB4AA00000001

> <PUBCHEM_MMFF94_ENERGY>
66.6936

> <PUBCHEM_FEATURE_SELFOVERLAP>
40.651

> <PUBCHEM_SHAPE_FINGERPRINT>
10299344 5 15985106318491207807
10595046 47 18334856065433699448
10674148 151 11671784867258885124
10883706 142 13406792208492935501
10917259 128 14852978739609305917
10968037 39 18335137588541195339
11089746 13 13262401072372078511
11135609 187 17530959151814569185
11315181 36 18272370876548531929
11524674 6 15554443003539821383
12107183 9 10735875071246309995
12373685 5 14923939081066396489
12616971 3 12175326003374648067
12730499 353 17989769986772012998
13422730 43 18334569166504066344
13673619 4 17275103903336279192
13914758 101 13984652629516748261
14123256 10 18334575746024665681
14347424 109 11241972603596876334
14461889 52 18411134758268967810
14528608 73 18260833657418523264
150020 25 18411702088714159508
15183329 4 17095245808850667349
15348495 7 8069443912325863950
15352257 5 16917349233928645551
15799311 1 15770059444911144557
18335252 98 18201722864226722958
18608769 82 18342454889330818522
20157964 124 14851604358590283266
21049683 271 18342174513808525689
21150785 3 18411138047506676876
21196832 93 18187933945080737915
21267235 1 18411421731315162395
21365058 27 16487258793935410751
21591340 7 8430314624659406321
21774942 28 14129606728054104671
22224240 67 17385720318658032922
22896161 15 18411981377320485593
2297311 6 18202284672003667089
2303208 19 17203323373559835395
23081809 10 17822573794132790969
23424782 7 18343586269452374398
23559900 14 18335413600182842961
24771293 8 18187088351882675764
2838139 119 11314027989852964619
3004659 81 18187643613954594429
34797466 226 17846502543540972620
397638 26 9079116657379282605
4325135 7 18411698802863867364
437795 51 17845928641167914848
445580 167 18343299288259207292
497634 4 18270121202121665949
5207 217 18260548926424111723
53794403 172 18189621729879023428
5381727 24 18335416882007089290
57634706 280 18337944710430541432

> <PUBCHEM_SHAPE_MULTIPOLES>
486.68
24.17
2.22
1.14
0.01
0.9
-0.02
-0.25
-5.97
-0.6
0.27
1.39
-0.52
0.75

> <PUBCHEM_SHAPE_SELFOVERLAP>
1032.355

> <PUBCHEM_SHAPE_VOLUME>
274

> <PUBCHEM_COORDINATE_TYPE>
2
5
10

$$$$
89421099
  -OEChem-05102415103D

 39 41  0     1  0  0  0  0  0999 V2000
   -1.9788    2.7855    0.1537 S   0  0  0  0  0  0  0  0  0  0  0  0
    6.9839    1.7162    0.5376 F   0  0  0  0  0  0  0  0  0  0  0  0
    0.1584   -1.3783    0.2932 O   0  0  0  0  0  0  0  0  0  0  0  0
    2.0120   -0.0092    0.4638 N   0  0  0  0  0  0  0  0  0  0  0  0
   -0.0526    0.9597    0.2989 N   0  0  0  0  0  0  0  0  0  0  0  0
   -2.3830    0.2329    0.0944 N   0  0  0  0  0  0  0  0  0  0  0  0
   -7.1945   -1.3738   -0.3277 N   0  0  0  0  0  0  0  0  0  0  0  0
    2.9963   -1.0760    0.5363 C   0  0  1  0  0  0  0  0  0  0  0  0
    4.3091   -0.6794   -0.0490 C   0  0  0  0  0  0  0  0  0  0  0  0
    3.0975   -1.5591    1.9908 C   0  0  0  0  0  0  0  0  0  0  0  0
    5.0475    0.3529    0.5298 C   0  0  0  0  0  0  0  0  0  0  0  0
    4.7985   -1.3402   -1.1758 C   0  0  0  0  0  0  0  0  0  0  0  0
    0.6443   -0.2509    0.3457 C   0  0  0  0  0  0  0  0  0  0  0  0
    6.2754    0.7243   -0.0180 C   0  0  0  0  0  0  0  0  0  0  0  0
    6.0262   -0.9686   -1.7238 C   0  0  0  0  0  0  0  0  0  0  0  0
    6.7649    0.0635   -1.1448 C   0  0  0  0  0  0  0  0  0  0  0  0
   -1.4488    1.1536    0.1827 C   0  0  0  0  0  0  0  0  0  0  0  0
   -3.6132    0.8532   -0.0041 C   0  0  0  0  0  0  0  0  0  0  0  0
   -4.8277    0.0980   -0.1138 C   0  0  0  0  0  0  0  0  0  0  0  0
   -3.5958    2.2321    0.0110 C   0  0  0  0  0  0  0  0  0  0  0  0
   -5.9154    0.6217   -0.8037 C   0  0  0  0  0  0  0  0  0  0  0  0
   -4.9220   -1.1609    0.4692 C   0  0  0  0  0  0  0  0  0  0  0  0
   -7.0656   -0.1471   -0.8811 C   0  0  0  0  0  0  0  0  0  0  0  0
   -6.1166   -1.8501    0.3348 C   0  0  0  0  0  0  0  0  0  0  0  0
    2.5926   -1.9187   -0.0404 H   0  0  0  0  0  0  0  0  0  0  0  0
    3.8301   -2.3684    2.0836 H   0  0  0  0  0  0  0  0  0  0  0  0
    2.1321   -1.9365    2.3460 H   0  0  0  0  0  0  0  0  0  0  0  0
    3.3982   -0.7527    2.6691 H   0  0  0  0  0  0  0  0  0  0  0  0
    2.3250    0.9532    0.5490 H   0  0  0  0  0  0  0  0  0  0  0  0
    4.6823    0.8830    1.4052 H   0  0  0  0  0  0  0  0  0  0  0  0
    4.2360   -2.1461   -1.6397 H   0  0  0  0  0  0  0  0  0  0  0  0
    6.4074   -1.4827   -2.6013 H   0  0  0  0  0  0  0  0  0  0  0  0
    0.4857    1.8200    0.3524 H   0  0  0  0  0  0  0  0  0  0  0  0
    7.7207    0.3531   -1.5713 H   0  0  0  0  0  0  0  0  0  0  0  0
   -4.4119    2.9396   -0.0394 H   0  0  0  0  0  0  0  0  0  0  0  0
   -5.8965    1.5898   -1.2930 H   0  0  0  0  0  0  0  0  0  0  0  0
   -4.1011   -1.6080    1.0206 H   0  0  0  0  0  0  0  0  0  0  0  0
   -7.9407    0.2140   -1.4113 H   0  0  0  0  0  0  0  0  0  0  0  0
   -6.2418   -2.8352    0.7720 H   0  0  0  0  0  0  0  0  0  0  0  0
  1 17  1  0  0  0  0
  1 20  1  0  0  0  0
  2 14  1  0  0  0  0
  3 13  2  0  0  0  0
  4  8  1  0  0  0  0
  4 13  1  0  0  0  0
  4 29  1  0  0  0  0
  5 13  1  0  0  0  0
  5 17  1  0  0  0  0
  5 33  1  0  0  0  0
  6 17  2  0  0  0  0
  6 18  1  0  0  0  0
  7 23  2  0  0  0  0
  7 24  1  0  0  0  0
  8  9  1  0  0  0  0
  8 10  1  0  0  0  0
  8 25  1  0  0  0  0
  9 11  2  0  0  0  0
  9 12  1  0  0  0  0
 10 26  1  0  0  0  0
 10 27  1  0  0  0  0
 10 28  1  0  0  0  0
 11 14  1  0  0  0  0
 11 30  1  0  0  0  0
 12 15  2  0  0  0  0
 12 31  1  0  0  0  0
 14 16  2  0  0  0  0
 15 16  1  0  0  0  0
 15 32  1  0  0  0  0
 16 34  1  0  0  0  0
 18 19  1  0  0  0  0
 18 20  2  0  0  0  0
 19 21  2  0  0  0  0
 19 22  1  0  0  0  0
 20 35  1  0  0  0  0
 21 23  1  0  0  0  0
 21 36  1  0  0  0  0
 22 24  2  0  0  0  0
 22 37  1  0  0  0  0
 23 38  1  0  0  0  0
 24 39  1  0  0  0  0
M  END
> <PUBCHEM_COMPOUND_CID>
89421099

> <PUBCHEM_CONFORMER_RMSD>
0.8

> <PUBCHEM_CONFORMER_DIVERSEORDER>
1
90
38
44
93
105
48
45
131
52
36
35
3
41
82
83
16
116
111
115
87
95
69
51
112
68
17
124
75
104
119
46
73
86
21
15
110
33
56
97
64
27
108
28
67
123
100
39
84
106
129
88
117
113
71
118
40
132
74
109
22
114
7
63
18
77
20
127
25
80
30
6
126
14
58
19
89
107
81
120
85
102
43
26
72
57
50
66
59
92
62
4
125
101
31
94
121
103
47
130
78
61
12
32
55
54
5
122
65
11
37
23
70
53
99
2
60
91
9
24
96
13
8
29
128
79
42
10
34
76
49
98

> <PUBCHEM_MMFF94_PARTIAL_CHARGES>
34
1 -0.08
11 -0.15
12 -0.15
13 0.69
14 0.19
15 -0.15
16 -0.15
17 0.44
18 0.17
19 0.05
2 -0.19
20 -0.11
21 -0.15
22 -0.15
23 0.16
24 0.16
29 0.37
3 -0.57
30 0.15
31 0.15
32 0.15
33 0.37
34 0.15
35 0.15
36 0.15
37 0.15
38 0.15
39 0.15
4 -0.73
5 -0.49
6 -0.57
7 -0.62
8 0.44
9 -0.14

> <PUBCHEM_EFFECTIVE_ROTOR_COUNT>
6

> <PUBCHEM_PHARMACOPHORE_FEATURES>
7
1 3 acceptor
1 4 donor
1 5 donor
1 7 acceptor
5 1 6 17 18 20 rings
6 7 19 21 22 23 24 rings
6 9 11 12 14 15 16 rings

> <PUBCHEM_HEAVY_ATOM_COUNT>
24

> <PUBCHEM_ATOM_DEF_STEREO_COUNT>
1

> <PUBCHEM_ATOM_UDEF_STEREO_COUNT>
0

> <PUBCHEM_BOND_DEF_STEREO_COUNT>
0

> <PUBCHEM_BOND_UDEF_STEREO_COUNT>
0

> <PUBCHEM_ISOTOPIC_ATOM_COUNT>
0

> <PUBCHEM_COMPONENT_COUNT>
1

> <PUBCHEM_CACTVS_TAUTO_COUNT>
5

> <PUBCHEM_CONFORMER_ID>
0554752B00000001

> <PUBCHEM_MMFF94_ENERGY>
52.3888

> <PUBCHEM_FEATURE_SELFOVERLAP>
35.576

> <PUBCHEM_SHAPE_FINGERPRINT>
10087517 78 15213291990150152671
10299344 5 15985107418129429662
10319926 262 10303801099434259413
10595046 47 18260828146727536976
10968037 39 18334574647093312591
11089746 13 13045945719917217527
11315181 36 18273496784981992641
11488393 25 16843618067150394383
11524674 6 15697996345384467959
12166972 35 16773795917568699889
12236239 1 18040151786245148930
12516196 113 18342174470826528281
12616971 3 12319442290714218344
12730499 353 17918274247539365710
13673619 4 17346881126462645312
13782708 43 17489304144452454047
13914758 101 14634857622463522172
14123256 10 18333169470547297119
14123256 34 18343868835941628403
14251764 30 16917064451726538721
14347424 109 10809343369716940382
14461889 52 18411976988539279410
14528608 73 18187931647172344688
14767858 380 18113339716885770631
15021287 119 13326848937939381731
15183329 4 17095244717855121117
15301273 46 17489871523271173729
15348495 7 8213842774565183878
15352257 5 16917068862552788647
15716309 27 17132116836219102807
17844677 252 17560804299270177760
1818759 1 17917706947132500311
18335252 98 18202285818675500174
18681886 176 18408882966375199697
19427546 20 18262236613198259709
20157964 124 14923942332525346474
21150785 3 18187087260395713326
21196832 93 18042412490122677395
21267235 1 18411140264849271547
21623969 137 16917074330193661022
21774942 28 14129603433735086855
221357 26 18202563965105512032
2297311 6 18202003201158451889
2303208 19 17275100600522122472
23081809 10 17822291227991794001
23424782 7 18343585174335895222
23559900 14 18335413608667301993
24771293 8 18187088360588739324
2838139 119 10881399851063199059
3004659 81 18187362147430707301
3009799 131 14417851440811515551
335352 9 18408878526813793997
34797466 226 17918278671255505892
4325135 7 18407477769139993628
46194498 28 18131070429365407572
497634 4 18340208479801797229
5207 217 18259704505788953538
53794403 172 18117283764739558268
5486654 2 18334294271111674539
59755656 215 18412826871756081487
9862886 166 17168433752719394355

> <PUBCHEM_SHAPE_MULTIPOLES>
464.69
22.23
2.11
1.16
1.43
0.89
-0.03
-4.05
-6.39
-1.72
0.33
1.65
-0.44
0.5

> <PUBCHEM_SHAPE_SELFOVERLAP>
990.837

> <PUBCHEM_SHAPE_VOLUME>
260.4

> <PUBCHEM_COORDINATE_TYPE>
2
5
10

$$$$
89421561
  -OEChem-05102415103D

 39 41  0     1  0  0  0  0  0999 V2000
    7.1903    1.9633    0.6329 Cl  0  0  0  0  0  0  0  0  0  0  0  0
   -1.9738    2.7861    0.0958 S   0  0  0  0  0  0  0  0  0  0  0  0
    0.1438   -1.3843    0.3141 O   0  0  0  0  0  0  0  0  0  0  0  0
    2.0044   -0.0211    0.4526 N   0  0  0  0  0  0  0  0  0  0  0  0
   -0.0560    0.9542    0.2731 N   0  0  0  0  0  0  0  0  0  0  0  0
   -2.3903    0.2347    0.0889 N   0  0  0  0  0  0  0  0  0  0  0  0
   -7.2106   -1.3569   -0.2891 N   0  0  0  0  0  0  0  0  0  0  0  0
    2.9837   -1.0910    0.5442 C   0  0  1  0  0  0  0  0  0  0  0  0
    4.2969   -0.7124   -0.0523 C   0  0  0  0  0  0  0  0  0  0  0  0
    3.0866   -1.5451    2.0079 C   0  0  0  0  0  0  0  0  0  0  0  0
    5.0425    0.3267    0.5044 C   0  0  0  0  0  0  0  0  0  0  0  0
    4.7801   -1.3983   -1.1668 C   0  0  0  0  0  0  0  0  0  0  0  0
    0.6352   -0.2586    0.3427 C   0  0  0  0  0  0  0  0  0  0  0  0
    6.2714    0.6801   -0.0531 C   0  0  0  0  0  0  0  0  0  0  0  0
    6.0089   -1.0447   -1.7246 C   0  0  0  0  0  0  0  0  0  0  0  0
    6.7546   -0.0057   -1.1675 C   0  0  0  0  0  0  0  0  0  0  0  0
   -1.4516    1.1525    0.1565 C   0  0  0  0  0  0  0  0  0  0  0  0
   -3.6178    0.8589   -0.0191 C   0  0  0  0  0  0  0  0  0  0  0  0
   -4.8362    0.1074   -0.1107 C   0  0  0  0  0  0  0  0  0  0  0  0
   -3.5938    2.2377   -0.0319 C   0  0  0  0  0  0  0  0  0  0  0  0
   -5.9232    0.6224   -0.8084 C   0  0  0  0  0  0  0  0  0  0  0  0
   -4.9351   -1.1389    0.4978 C   0  0  0  0  0  0  0  0  0  0  0  0
   -7.0771   -0.1422   -0.8676 C   0  0  0  0  0  0  0  0  0  0  0  0
   -6.1332   -1.8249    0.3802 C   0  0  0  0  0  0  0  0  0  0  0  0
    2.5745   -1.9432   -0.0143 H   0  0  0  0  0  0  0  0  0  0  0  0
    3.8163   -2.3553    2.1152 H   0  0  0  0  0  0  0  0  0  0  0  0
    2.1206   -1.9115    2.3728 H   0  0  0  0  0  0  0  0  0  0  0  0
    3.3921   -0.7265    2.6694 H   0  0  0  0  0  0  0  0  0  0  0  0
    2.3221    0.9413    0.5174 H   0  0  0  0  0  0  0  0  0  0  0  0
    4.6691    0.8679    1.3706 H   0  0  0  0  0  0  0  0  0  0  0  0
    4.2122   -2.2101   -1.6133 H   0  0  0  0  0  0  0  0  0  0  0  0
    6.3851   -1.5784   -2.5924 H   0  0  0  0  0  0  0  0  0  0  0  0
    7.7103    0.2588   -1.6127 H   0  0  0  0  0  0  0  0  0  0  0  0
    0.4866    1.8128    0.3079 H   0  0  0  0  0  0  0  0  0  0  0  0
   -4.4066    2.9480   -0.0946 H   0  0  0  0  0  0  0  0  0  0  0  0
   -5.9008    1.5803   -1.3172 H   0  0  0  0  0  0  0  0  0  0  0  0
   -4.1149   -1.5788    1.0562 H   0  0  0  0  0  0  0  0  0  0  0  0
   -7.9519    0.2124   -1.4028 H   0  0  0  0  0  0  0  0  0  0  0  0
   -6.2621   -2.8004    0.8375 H   0  0  0  0  0  0  0  0  0  0  0  0
  1 14  1  0  0  0  0
  2 17  1  0  0  0  0
  2 20  1  0  0  0  0
  3 13  2  0  0  0  0
  4  8  1  0  0  0  0
  4 13  1  0  0  0  0
  4 29  1  0  0  0  0
  5 13  1  0  0  0  0
  5 17  1  0  0  0  0
  5 34  1  0  0  0  0
  6 17  2  0  0  0  0
  6 18  1  0  0  0  0
  7 23  2  0  0  0  0
  7 24  1  0  0  0  0
  8  9  1  0  0  0  0
  8 10  1  0  0  0  0
  8 25  1  0  0  0  0
  9 11  2  0  0  0  0
  9 12  1  0  0  0  0
 10 26  1  0  0  0  0
 10 27  1  0  0  0  0
 10 28  1  0  0  0  0
 11 14  1  0  0  0  0
 11 30  1  0  0  0  0
 12 15  2  0  0  0  0
 12 31  1  0  0  0  0
 14 16  2  0  0  0  0
 15 16  1  0  0  0  0
 15 32  1  0  0  0  0
 16 33  1  0  0  0  0
 18 19  1  0  0  0  0
 18 20  2  0  0  0  0
 19 21  2  0  0  0  0
 19 22  1  0  0  0  0
 20 35  1  0  0  0  0
 21 23  1  0  0  0  0
 21 36  1  0  0  0  0
 22 24  2  0  0  0  0
 22 37  1  0  0  0  0
 23 38  1  0  0  0  0
 24 39  1  0  0  0  0
M  END
> <PUBCHEM_COMPOUND_CID>
89421561

> <PUBCHEM_CONFORMER_RMSD>
0.8

> <PUBCHEM_CONFORMER_DIVERSEORDER>
1
19
76
75
46
97
43
42
61
114
117
102
63
108
103
138
60
16
127
32
119
18
115
73
28
38
27
79
92
85
11
130
65
49
134
35
71
77
72
23
110
121
101
3
67
124
128
126
104
109
74
22
125
44
93
33
83
94
111
30
56
107
90
80
17
100
8
84
96
51
123
9
81
113
26
48
131
68
40
116
50
31
13
133
37
91
88
21
70
36
136
86
58
66
25
15
87
120
39
45
4
29
105
54
129
10
14
139
135
53
55
82
112
57
140
5
34
122
95
64
106
47
69
2
132
52
137
99
62
7
89
41
6
20
118
24
98
12
78
59

> <PUBCHEM_MMFF94_PARTIAL_CHARGES>
34
1 -0.18
11 -0.15
12 -0.15
13 0.69
14 0.18
15 -0.15
16 -0.15
17 0.44
18 0.17
19 0.05
2 -0.08
20 -0.11
21 -0.15
22 -0.15
23 0.16
24 0.16
29 0.37
3 -0.57
30 0.15
31 0.15
32 0.15
33 0.15
34 0.37
35 0.15
36 0.15
37 0.15
38 0.15
39 0.15
4 -0.73
5 -0.49
6 -0.57
7 -0.62
8 0.44
9 -0.14

> <PUBCHEM_EFFECTIVE_ROTOR_COUNT>
6

> <PUBCHEM_PHARMACOPHORE_FEATURES>
7
1 3 acceptor
1 4 donor
1 5 donor
1 7 acceptor
5 2 6 17 18 20 rings
6 7 19 21 22 23 24 rings
6 9 11 12 14 15 16 rings

> <PUBCHEM_HEAVY_ATOM_COUNT>
24

> <PUBCHEM_ATOM_DEF_STEREO_COUNT>
1

> <PUBCHEM_ATOM_UDEF_STEREO_COUNT>
0

> <PUBCHEM_BOND_DEF_STEREO_COUNT>
0

> <PUBCHEM_BOND_UDEF_STEREO_COUNT>
0

> <PUBCHEM_ISOTOPIC_ATOM_COUNT>
0

> <PUBCHEM_COMPONENT_COUNT>
1

> <PUBCHEM_CACTVS_TAUTO_COUNT>
5

> <PUBCHEM_CONFORMER_ID>
055476F900000001

> <PUBCHEM_MMFF94_ENERGY>
53.0808

> <PUBCHEM_FEATURE_SELFOVERLAP>
35.576

> <PUBCHEM_SHAPE_FINGERPRINT>
10299344 5 16056602062229754030
10319926 262 10447635920582303821
10595046 47 18260545572191751760
10917259 128 14853258019757540509
10968037 39 18334293167821641135
11089746 13 12973607750403657215
11315181 36 18201720665936612617
11488393 25 17058101999414587103
11524674 6 15769772464435187703
12107183 9 10952048948592565490
12236239 1 17967812717230523322
12516196 113 18342175574559270345
12616971 3 12391499884736309041
12730499 353 17989488520469561486
13673619 4 17418094299749370552
13914758 101 14273725227385942052
14123256 10 18333168371014557343
14251732 16 18412826897615114004
14251764 30 16989122045764460153
14347424 109 11169911711097703694
14461889 52 18411133667426279026
14528608 73 18187650167900653736
14767858 380 18040720272406055663
15021287 119 13398625056995317763
15183329 4 17095244713533793053
15348495 7 8285899269096765286
15352257 5 16917068862547513911
15716309 27 17203892955275045335
18335252 98 18202004343688213998
19427546 20 18261955138221542589
20157964 124 14779264194527685290
21150785 3 18187368735393542478
21196832 93 18114751559126753491
21267235 1 18410858789872554395
21365058 27 16415482678958073207
21591340 7 8646771080730919321
21623969 137 16988850449254884790
21774942 28 14129321958716171679
221357 26 18202282490134076112
2297311 6 18201721726187009473
2303208 19 17274819125550680072
23081809 10 17822010852531959888
23424782 7 18343303703685774386
23559900 14 18334850658713874177
24771293 8 18187088360583451580
2838139 119 10809342261309682459
3004659 81 18187080672453990165
3009799 131 14273736252746228671
335352 9 18408597051842377589
34797466 226 17917997191999639236
4325135 7 18335139799621152068
437795 51 17917424389143432024
445580 167 18271520983165176860
46194498 28 18131071524608402924
497634 4 18340489954757408861
5207 217 18187365436784857954
53794403 172 18116720814801954764
5385378 56 9150908199758113645
5486654 2 18334012796124420859
57634706 280 18337944719089171248
9862886 166 17168153377238487227

> <PUBCHEM_SHAPE_MULTIPOLES>
473.83
22.88
2.2
1.17
0.31
1.03
0.01
-2.75
5.51
0.88
-0.29
-1.7
-0.48
1.04

> <PUBCHEM_SHAPE_SELFOVERLAP>
998.81

> <PUBCHEM_SHAPE_VOLUME>
268.6

> <PUBCHEM_COORDINATE_TYPE>
2
5
10

$$$$
87405559
  -OEChem-05102415103D

 39 41  0     1  0  0  0  0  0999 V2000
   -1.8730   -2.7233   -1.2409 S   0  0  0  0  0  0  0  0  0  0  0  0
    0.8794    0.2339    1.1262 O   0  0  0  0  0  0  0  0  0  0  0  0
    2.4495   -1.3721    0.5828 N   0  0  0  0  0  0  0  0  0  0  0  0
    0.2915   -1.6717   -0.1123 N   0  0  0  0  0  0  0  0  0  0  0  0
   -1.8453   -0.4853    0.0525 N   0  0  0  0  0  0  0  0  0  0  0  0
   -6.2394    2.0538    0.4471 N   0  0  0  0  0  0  0  0  0  0  0  0
    3.5772   -0.7229    1.2295 C   0  0  2  0  0  0  0  0  0  0  0  0
    4.2865    0.2156    0.3126 C   0  0  0  0  0  0  0  0  0  0  0  0
    4.5021   -1.7832    1.8452 C   0  0  0  0  0  0  0  0  0  0  0  0
    4.3917   -0.0832   -1.0458 C   0  0  0  0  0  0  0  0  0  0  0  0
    4.8445    1.3919    0.8132 C   0  0  0  0  0  0  0  0  0  0  0  0
    1.1648   -0.8307    0.5830 C   0  0  0  0  0  0  0  0  0  0  0  0
    5.0550    0.7943   -1.9036 C   0  0  0  0  0  0  0  0  0  0  0  0
    5.5077    2.2695   -0.0444 C   0  0  0  0  0  0  0  0  0  0  0  0
    5.6129    1.9707   -1.4029 C   0  0  0  0  0  0  0  0  0  0  0  0
   -1.0920   -1.4880   -0.3417 C   0  0  0  0  0  0  0  0  0  0  0  0
   -3.1383   -0.7000   -0.3835 C   0  0  0  0  0  0  0  0  0  0  0  0
   -4.1899    0.2338   -0.1017 C   0  0  0  0  0  0  0  0  0  0  0  0
   -3.3478   -1.8592   -1.1006 C   0  0  0  0  0  0  0  0  0  0  0  0
   -5.5005   -0.2107    0.0335 C   0  0  0  0  0  0  0  0  0  0  0  0
   -3.9030    1.5873    0.0372 C   0  0  0  0  0  0  0  0  0  0  0  0
   -6.4799    0.7309    0.3055 C   0  0  0  0  0  0  0  0  0  0  0  0
   -4.9538    2.4485    0.3090 C   0  0  0  0  0  0  0  0  0  0  0  0
    3.1608   -0.1390    2.0612 H   0  0  0  0  0  0  0  0  0  0  0  0
    4.9359   -2.4284    1.0725 H   0  0  0  0  0  0  0  0  0  0  0  0
    5.3270   -1.3156    2.3934 H   0  0  0  0  0  0  0  0  0  0  0  0
    3.9487   -2.4241    2.5403 H   0  0  0  0  0  0  0  0  0  0  0  0
    2.6161   -2.2256    0.0580 H   0  0  0  0  0  0  0  0  0  0  0  0
    3.9812   -0.9985   -1.4629 H   0  0  0  0  0  0  0  0  0  0  0  0
    4.7718    1.6361    1.8697 H   0  0  0  0  0  0  0  0  0  0  0  0
    5.1403    0.5603   -2.9607 H   0  0  0  0  0  0  0  0  0  0  0  0
    5.9428    3.1851    0.3454 H   0  0  0  0  0  0  0  0  0  0  0  0
    0.6716   -2.5258   -0.5108 H   0  0  0  0  0  0  0  0  0  0  0  0
    6.1301    2.6535   -2.0706 H   0  0  0  0  0  0  0  0  0  0  0  0
   -4.2507   -2.2441   -1.5542 H   0  0  0  0  0  0  0  0  0  0  0  0
   -5.7834   -1.2548   -0.0476 H   0  0  0  0  0  0  0  0  0  0  0  0
   -2.8965    1.9805   -0.0642 H   0  0  0  0  0  0  0  0  0  0  0  0
   -7.5172    0.4354    0.4243 H   0  0  0  0  0  0  0  0  0  0  0  0
   -4.7832    3.5137    0.4254 H   0  0  0  0  0  0  0  0  0  0  0  0
  1 16  1  0  0  0  0
  1 19  1  0  0  0  0
  2 12  2  0  0  0  0
  3  7  1  0  0  0  0
  3 12  1  0  0  0  0
  3 28  1  0  0  0  0
  4 12  1  0  0  0  0
  4 16  1  0  0  0  0
  4 33  1  0  0  0  0
  5 16  2  0  0  0  0
  5 17  1  0  0  0  0
  6 22  2  0  0  0  0
  6 23  1  0  0  0  0
  7  8  1  0  0  0  0
  7  9  1  0  0  0  0
  7 24  1  0  0  0  0
  8 10  2  0  0  0  0
  8 11  1  0  0  0  0
  9 25  1  0  0  0  0
  9 26  1  0  0  0  0
  9 27  1  0  0  0  0
 10 13  1  0  0  0  0
 10 29  1  0  0  0  0
 11 14  2  0  0  0  0
 11 30  1  0  0  0  0
 13 15  2  0  0  0  0
 13 31  1  0  0  0  0
 14 15  1  0  0  0  0
 14 32  1  0  0  0  0
 15 34  1  0  0  0  0
 17 18  1  0  0  0  0
 17 19  2  0  0  0  0
 18 20  2  0  0  0  0
 18 21  1  0  0  0  0
 19 35  1  0  0  0  0
 20 22  1  0  0  0  0
 20 36  1  0  0  0  0
 21 23  2  0  0  0  0
 21 37  1  0  0  0  0
 22 38  1  0  0  0  0
 23 39  1  0  0  0  0
M  END
> <PUBCHEM_COMPOUND_CID>
87405559

> <PUBCHEM_CONFORMER_RMSD>
0.8

> <PUBCHEM_CONFORMER_DIVERSEORDER>
1
28
38
33
17
18
23
32
12
45
42
7
44
41
6
25
19
40
21
31
3
11
5
30
16
9
34
24
29
8
20
37
10
36
15
43
22
13
39
35
26
2
27
14
4

> <PUBCHEM_MMFF94_PARTIAL_CHARGES>
34
1 -0.08
10 -0.15
11 -0.15
12 0.69
13 -0.15
14 -0.15
15 -0.15
16 0.44
17 0.17
18 0.05
19 -0.11
2 -0.57
20 -0.15
21 -0.15
22 0.16
23 0.16
28 0.37
29 0.15
3 -0.73
30 0.15
31 0.15
32 0.15
33 0.37
34 0.15
35 0.15
36 0.15
37 0.15
38 0.15
39 0.15
4 -0.49
5 -0.57
6 -0.62
7 0.44
8 -0.14

> <PUBCHEM_EFFECTIVE_ROTOR_COUNT>
6

> <PUBCHEM_PHARMACOPHORE_FEATURES>
7
1 2 acceptor
1 3 donor
1 4 donor
1 6 acceptor
5 1 5 16 17 19 rings
6 6 18 20 21 22 23 rings
6 8 10 11 13 14 15 rings

> <PUBCHEM_HEAVY_ATOM_COUNT>
23

> <PUBCHEM_ATOM_DEF_STEREO_COUNT>
1

> <PUBCHEM_ATOM_UDEF_STEREO_COUNT>
0

> <PUBCHEM_BOND_DEF_STEREO_COUNT>
0

> <PUBCHEM_BOND_UDEF_STEREO_COUNT>
0

> <PUBCHEM_ISOTOPIC_ATOM_COUNT>
0

> <PUBCHEM_COMPONENT_COUNT>
1

> <PUBCHEM_CACTVS_TAUTO_COUNT>
5

> <PUBCHEM_CONFORMER_ID>
0535B3F700000001

> <PUBCHEM_MMFF94_ENERGY>
53.2682

> <PUBCHEM_FEATURE_SELFOVERLAP>
35.576

> <PUBCHEM_SHAPE_FINGERPRINT>
10378564 45 17989214729094086462
10554248 39 18267850710541555663
10670039 82 17916880014649343480
10753850 27 10159693586833804309
11475781 23 16773789273359794162
12107183 9 18267009558308249522
12342043 65 14997397306789502770
12390115 104 17989213621056022291
12422481 6 17386003902015690021
12596602 18 17676206858225891409
12616971 3 18188195538305357306
13885169 86 18337117847063136329
13955234 65 17240752935977618850
14211702 104 8790889609337192609
14251740 57 10809610503534592720
14251757 5 18131073770063434625
14251764 75 16662917978976121508
14790565 3 18341051822325973289
14840074 17 18186809071301684133
14848178 5 9583520893233195556
15183329 4 16917360215938091258
15238133 3 18271515447405915634
15575132 122 18335984169255545965
15685185 35 17316783254600727764
17349148 13 10591767618475060956
18222031 100 11240007763042832626
20281389 69 18335136462848515137
20645477 70 13614522961529165610
21302155 148 18335138644623784813
21315763 87 14418137318119590441
21315764 119 18129958823045994518
22061861 79 14979959176657507061
22079108 93 16950566596852862083
2215653 11 15985109621431789070
23081809 10 18409721868378458435
23198884 109 14476958983330543459
23559900 14 16988563563025341952
25122255 55 8646495140981051497
255183 451 16909166896841121095
268830 7 18041545997423367626
2838139 119 18269824346908863621
29717793 49 12103847851827589650
3004659 81 18342738469284953634
3472631 163 18341615944652291116
34797466 226 17274822518664716136
38570 142 18114477703495404502
393628 194 17682124618907645020
397830 11 16588320409618630257
44249763 50 17631156658252881352
5104073 3 17749102327110739138
543368 44 18334857276778176013
59682541 52 15338841911068453101
633830 44 18260824891338330274
7062679 6 18411981368989033341
7808743 9 18341609330640141991
960060 61 15123796210404578064

> <PUBCHEM_SHAPE_MULTIPOLES>
451.39
17.76
2.75
1.4
3.76
0.15
0.14
12.24
0.6
1.03
0.32
-2.36
-0.33
-2.82

> <PUBCHEM_SHAPE_SELFOVERLAP>
959.998

> <PUBCHEM_SHAPE_VOLUME>
252.8

> <PUBCHEM_COORDINATE_TYPE>
2
5
10

$$$$
87405226
  -OEChem-05102415103D

 40 42  0     1  0  0  0  0  0999 V2000
    2.0004    2.6158   -1.3939 S   0  0  0  0  0  0  0  0  0  0  0  0
   -4.9749    2.3151    0.5890 O   0  0  0  0  0  0  0  0  0  0  0  0
   -0.6660   -0.3082    1.1091 O   0  0  0  0  0  0  0  0  0  0  0  0
   -2.2857    1.2095    0.4677 N   0  0  0  0  0  0  0  0  0  0  0  0
   -0.1354    1.5483   -0.2259 N   0  0  0  0  0  0  0  0  0  0  0  0
    2.0409    0.4506    0.0179 N   0  0  0  0  0  0  0  0  0  0  0  0
    6.5193   -1.9029    0.5803 N   0  0  0  0  0  0  0  0  0  0  0  0
   -3.3971    0.5545    1.1413 C   0  0  2  0  0  0  0  0  0  0  0  0
   -4.0613   -0.4531    0.2650 C   0  0  0  0  0  0  0  0  0  0  0  0
   -4.3618    1.6289    1.6756 C   0  0  0  0  0  0  0  0  0  0  0  0
   -4.1408   -0.2363   -1.1106 C   0  0  0  0  0  0  0  0  0  0  0  0
   -4.6029   -1.6122    0.8208 C   0  0  0  0  0  0  0  0  0  0  0  0
   -0.9843    0.7147    0.5073 C   0  0  0  0  0  0  0  0  0  0  0  0
   -4.7619   -1.1785   -1.9304 C   0  0  0  0  0  0  0  0  0  0  0  0
   -5.2239   -2.5546    0.0010 C   0  0  0  0  0  0  0  0  0  0  0  0
   -5.3034   -2.3377   -1.3746 C   0  0  0  0  0  0  0  0  0  0  0  0
    1.2559    1.4027   -0.4352 C   0  0  0  0  0  0  0  0  0  0  0  0
    3.3293    0.6883   -0.4198 C   0  0  0  0  0  0  0  0  0  0  0  0
    4.4111   -0.1905   -0.0806 C   0  0  0  0  0  0  0  0  0  0  0  0
    3.5037    1.8143   -1.1968 C   0  0  0  0  0  0  0  0  0  0  0  0
    5.7037    0.3079    0.0400 C   0  0  0  0  0  0  0  0  0  0  0  0
    4.1715   -1.5440    0.1290 C   0  0  0  0  0  0  0  0  0  0  0  0
    6.7136   -0.5818    0.3693 C   0  0  0  0  0  0  0  0  0  0  0  0
    5.2499   -2.3508    0.4544 C   0  0  0  0  0  0  0  0  0  0  0  0
   -2.9719    0.0357    2.0106 H   0  0  0  0  0  0  0  0  0  0  0  0
   -5.1540    1.1714    2.2780 H   0  0  0  0  0  0  0  0  0  0  0  0
   -3.8284    2.3615    2.2908 H   0  0  0  0  0  0  0  0  0  0  0  0
   -2.4778    2.0281   -0.1021 H   0  0  0  0  0  0  0  0  0  0  0  0
   -3.7416    0.6616   -1.5737 H   0  0  0  0  0  0  0  0  0  0  0  0
   -4.5497   -1.7926    1.8912 H   0  0  0  0  0  0  0  0  0  0  0  0
   -4.8268   -1.0085   -3.0012 H   0  0  0  0  0  0  0  0  0  0  0  0
   -5.6462   -3.4568    0.4337 H   0  0  0  0  0  0  0  0  0  0  0  0
   -5.7877   -3.0709   -2.0129 H   0  0  0  0  0  0  0  0  0  0  0  0
   -0.5419    2.3656   -0.6726 H   0  0  0  0  0  0  0  0  0  0  0  0
   -5.5746    2.9774    0.9728 H   0  0  0  0  0  0  0  0  0  0  0  0
    4.3964    2.2067   -1.6640 H   0  0  0  0  0  0  0  0  0  0  0  0
    5.9498    1.3558   -0.0952 H   0  0  0  0  0  0  0  0  0  0  0  0
    3.1807   -1.9782    0.0417 H   0  0  0  0  0  0  0  0  0  0  0  0
    7.7385   -0.2430    0.4794 H   0  0  0  0  0  0  0  0  0  0  0  0
    5.1164   -3.4137    0.6269 H   0  0  0  0  0  0  0  0  0  0  0  0
  1 17  1  0  0  0  0
  1 20  1  0  0  0  0
  2 10  1  0  0  0  0
  2 35  1  0  0  0  0
  3 13  2  0  0  0  0
  4  8  1  0  0  0  0
  4 13  1  0  0  0  0
  4 28  1  0  0  0  0
  5 13  1  0  0  0  0
  5 17  1  0  0  0  0
  5 34  1  0  0  0  0
  6 17  2  0  0  0  0
  6 18  1  0  0  0  0
  7 23  2  0  0  0  0
  7 24  1  0  0  0  0
  8  9  1  0  0  0  0
  8 10  1  0  0  0  0
  8 25  1  0  0  0  0
  9 11  2  0  0  0  0
  9 12  1  0  0  0  0
 10 26  1  0  0  0  0
 10 27  1  0  0  0  0
 11 14  1  0  0  0  0
 11 29  1  0  0  0  0
 12 15  2  0  0  0  0
 12 30  1  0  0  0  0
 14 16  2  0  0  0  0
 14 31  1  0  0  0  0
 15 16  1  0  0  0  0
 15 32  1  0  0  0  0
 16 33  1  0  0  0  0
 18 19  1  0  0  0  0
 18 20  2  0  0  0  0
 19 21  2  0  0  0  0
 19 22  1  0  0  0  0
 20 36  1  0  0  0  0
 21 23  1  0  0  0  0
 21 37  1  0  0  0  0
 22 24  2  0  0  0  0
 22 38  1  0  0  0  0
 23 39  1  0  0  0  0
 24 40  1  0  0  0  0
M  END
> <PUBCHEM_COMPOUND_CID>
87405226

> <PUBCHEM_CONFORMER_RMSD>
0.8

> <PUBCHEM_CONFORMER_DIVERSEORDER>
1
7
33
43
73
72
32
36
46
77
57
9
2
70
22
71
67
26
55
45
50
52
25
82
34
30
79
10
66
54
40
11
49
48
17
41
23
6
69
64
63
58
51
37
38
19
24
47
56
80
3
75
27
78
14
5
59
8
76
13
81
12
31
65
16
53
62
61
42
15
21
60
74
18
35
4
29
68
28
39
20
44

> <PUBCHEM_MMFF94_PARTIAL_CHARGES>
37
1 -0.08
10 0.28
11 -0.15
12 -0.15
13 0.69
14 -0.15
15 -0.15
16 -0.15
17 0.44
18 0.17
19 0.05
2 -0.68
20 -0.11
21 -0.15
22 -0.15
23 0.16
24 0.16
28 0.37
29 0.15
3 -0.57
30 0.15
31 0.15
32 0.15
33 0.15
34 0.37
35 0.4
36 0.15
37 0.15
38 0.15
39 0.15
4 -0.73
40 0.15
5 -0.49
6 -0.57
7 -0.62
8 0.44
9 -0.14

> <PUBCHEM_EFFECTIVE_ROTOR_COUNT>
7

> <PUBCHEM_PHARMACOPHORE_FEATURES>
9
1 2 acceptor
1 2 donor
1 3 acceptor
1 4 donor
1 5 donor
1 7 acceptor
5 1 6 17 18 20 rings
6 7 19 21 22 23 24 rings
6 9 11 12 14 15 16 rings

> <PUBCHEM_HEAVY_ATOM_COUNT>
24

> <PUBCHEM_ATOM_DEF_STEREO_COUNT>
1

> <PUBCHEM_ATOM_UDEF_STEREO_COUNT>
0

> <PUBCHEM_BOND_DEF_STEREO_COUNT>
0

> <PUBCHEM_BOND_UDEF_STEREO_COUNT>
0

> <PUBCHEM_ISOTOPIC_ATOM_COUNT>
0

> <PUBCHEM_COMPONENT_COUNT>
1

> <PUBCHEM_CACTVS_TAUTO_COUNT>
5

> <PUBCHEM_CONFORMER_ID>
0535B2AA00000001

> <PUBCHEM_MMFF94_ENERGY>
55.1291

> <PUBCHEM_FEATURE_SELFOVERLAP>
45.728

> <PUBCHEM_SHAPE_FINGERPRINT>
105312 117 14562528492219543347
10595046 47 18339086002582897813
11545043 162 17632573851151897561
11796584 16 18131074783812918408
11809386 21 18272088323186915563
12107183 9 18264779761559202521
12236239 1 18342739615829822176
12342043 65 16300388048299935185
12422481 6 17560520595337270878
12555020 224 17894912953136254923
12596602 18 17847059978724490890
12616971 3 18334308560372935761
12839892 36 17846502521327690823
13073987 5 18340210794514707401
13533116 47 18339642360299297720
13583140 156 16702015344816475233
14211702 104 18341339954365316950
14251751 18 17989204862720933058
14347332 77 18341895242681903983
1454969 45 18261116297127976012
14848178 5 18410848884533472031
15183329 4 16733254694970189146
15188451 53 18060694009426544815
15250474 111 18340491161315989671
15728490 51 18271240630097842942
17349148 13 18342748441465376103
17857418 61 18412544322973684366
18222031 100 18186794778051085432
20028762 73 18413105048804817038
20567600 247 18410005572248075334
20621476 91 16200147742185073567
20645477 70 17895197752865928224
21033648 29 15051465881500934505
21315763 178 18410014299858497730
21728266 224 18131633396012953057
220451 1 18340218418308335576
22061861 79 17603584153227831270
22393880 68 17168415073579497979
23081809 10 18408611370340338420
23402539 116 18408325466719576152
23522609 53 18120125881774634740
23559900 14 17968659448816893944
24771293 8 18334857239031182288
314194 84 18261119560691230080
34797466 226 15502948548435730029
397830 11 17131538536121241698
4015057 19 18041006197032669520
439807 62 18266175218473148279
5085150 59 17846774092853693455
5104073 3 17988931097369106057
531348 171 18188203213707002589
559249 180 18412826855271992121
60123966 16 16443623635794685164
6431902 208 18409729568864547059
7495541 125 17632855352257354952
96874 4 18270671069214619367

> <PUBCHEM_SHAPE_MULTIPOLES>
466.1
17.98
2.87
1.39
8.89
0.21
0.28
11.05
-0.39
-0.53
0.33
-1.97
-0.21
-3.23

> <PUBCHEM_SHAPE_SELFOVERLAP>
990.978

> <PUBCHEM_SHAPE_VOLUME>
260.4

> <PUBCHEM_COORDINATE_TYPE>
2
5
10

$$$$
87405909
  -OEChem-05102415103D

 42 44  0     1  0  0  0  0  0999 V2000
    1.9784    2.3227   -1.8571 S   0  0  0  0  0  0  0  0  0  0  0  0
   -0.7495   -0.1207    1.0606 O   0  0  0  0  0  0  0  0  0  0  0  0
   -2.3552    1.2678    0.1457 N   0  0  0  0  0  0  0  0  0  0  0  0
   -0.1839    1.4785   -0.5622 N   0  0  0  0  0  0  0  0  0  0  0  0
    1.9805    0.4303   -0.0960 N   0  0  0  0  0  0  0  0  0  0  0  0
    6.4328   -1.8095    0.9392 N   0  0  0  0  0  0  0  0  0  0  0  0
   -3.4748    0.7451    0.8965 C   0  0  1  0  0  0  0  0  0  0  0  0
   -4.5122    1.8424    1.1892 C   0  0  0  0  0  0  0  0  0  0  0  0
   -4.0959   -0.4362    0.1789 C   0  0  0  0  0  0  0  0  0  0  0  0
   -3.9068    3.0422    1.9077 C   0  0  0  0  0  0  0  0  0  0  0  0
   -4.6282   -1.4968    0.9121 C   0  0  0  0  0  0  0  0  0  0  0  0
   -4.1353   -0.4629   -1.2151 C   0  0  0  0  0  0  0  0  0  0  0  0
   -1.0508    0.7855    0.2874 C   0  0  0  0  0  0  0  0  0  0  0  0
   -5.1998   -2.5842    0.2513 C   0  0  0  0  0  0  0  0  0  0  0  0
   -4.7069   -1.5503   -1.8759 C   0  0  0  0  0  0  0  0  0  0  0  0
   -5.2392   -2.6109   -1.1427 C   0  0  0  0  0  0  0  0  0  0  0  0
    1.2097    1.2941   -0.7188 C   0  0  0  0  0  0  0  0  0  0  0  0
    3.2776    0.5850   -0.5449 C   0  0  0  0  0  0  0  0  0  0  0  0
    4.3476   -0.2270   -0.0415 C   0  0  0  0  0  0  0  0  0  0  0  0
    3.4728    1.5610   -1.4995 C   0  0  0  0  0  0  0  0  0  0  0  0
    5.6413    0.2796    0.0151 C   0  0  0  0  0  0  0  0  0  0  0  0
    4.0954   -1.5240    0.3918 C   0  0  0  0  0  0  0  0  0  0  0  0
    6.6395   -0.5445    0.5092 C   0  0  0  0  0  0  0  0  0  0  0  0
    5.1627   -2.2674    0.8691 C   0  0  0  0  0  0  0  0  0  0  0  0
   -3.0750    0.3879    1.8550 H   0  0  0  0  0  0  0  0  0  0  0  0
   -5.3236    1.4310    1.8024 H   0  0  0  0  0  0  0  0  0  0  0  0
   -4.9706    2.1910    0.2548 H   0  0  0  0  0  0  0  0  0  0  0  0
   -2.5332    1.9725   -0.5639 H   0  0  0  0  0  0  0  0  0  0  0  0
   -3.1704    3.5581    1.2840 H   0  0  0  0  0  0  0  0  0  0  0  0
   -4.6917    3.7632    2.1581 H   0  0  0  0  0  0  0  0  0  0  0  0
   -3.4195    2.7363    2.8389 H   0  0  0  0  0  0  0  0  0  0  0  0
   -4.6053   -1.4871    1.9986 H   0  0  0  0  0  0  0  0  0  0  0  0
   -3.7443    0.3548   -1.8139 H   0  0  0  0  0  0  0  0  0  0  0  0
   -5.6148   -3.4097    0.8221 H   0  0  0  0  0  0  0  0  0  0  0  0
   -4.7412   -1.5697   -2.9613 H   0  0  0  0  0  0  0  0  0  0  0  0
   -5.6851   -3.4570   -1.6573 H   0  0  0  0  0  0  0  0  0  0  0  0
   -0.5778    2.2091   -1.1486 H   0  0  0  0  0  0  0  0  0  0  0  0
    4.3758    1.8645   -2.0110 H   0  0  0  0  0  0  0  0  0  0  0  0
    5.8968    1.2881   -0.2927 H   0  0  0  0  0  0  0  0  0  0  0  0
    3.1033   -1.9630    0.3623 H   0  0  0  0  0  0  0  0  0  0  0  0
    7.6647   -0.1957    0.5781 H   0  0  0  0  0  0  0  0  0  0  0  0
    5.0192   -3.2848    1.2180 H   0  0  0  0  0  0  0  0  0  0  0  0
  1 17  1  0  0  0  0
  1 20  1  0  0  0  0
  2 13  2  0  0  0  0
  3  7  1  0  0  0  0
  3 13  1  0  0  0  0
  3 28  1  0  0  0  0
  4 13  1  0  0  0  0
  4 17  1  0  0  0  0
  4 37  1  0  0  0  0
  5 17  2  0  0  0  0
  5 18  1  0  0  0  0
  6 23  2  0  0  0  0
  6 24  1  0  0  0  0
  7  8  1  0  0  0  0
  7  9  1  0  0  0  0
  7 25  1  0  0  0  0
  8 10  1  0  0  0  0
  8 26  1  0  0  0  0
  8 27  1  0  0  0  0
  9 11  2  0  0  0  0
  9 12  1  0  0  0  0
 10 29  1  0  0  0  0
 10 30  1  0  0  0  0
 10 31  1  0  0  0  0
 11 14  1  0  0  0  0
 11 32  1  0  0  0  0
 12 15  2  0  0  0  0
 12 33  1  0  0  0  0
 14 16  2  0  0  0  0
 14 34  1  0  0  0  0
 15 16  1  0  0  0  0
 15 35  1  0  0  0  0
 16 36  1  0  0  0  0
 18 19  1  0  0  0  0
 18 20  2  0  0  0  0
 19 21  2  0  0  0  0
 19 22  1  0  0  0  0
 20 38  1  0  0  0  0
 21 23  1  0  0  0  0
 21 39  1  0  0  0  0
 22 24  2  0  0  0  0
 22 40  1  0  0  0  0
 23 41  1  0  0  0  0
 24 42  1  0  0  0  0
M  END
> <PUBCHEM_COMPOUND_CID>
87405909

> <PUBCHEM_CONFORMER_RMSD>
0.8

> <PUBCHEM_CONFORMER_DIVERSEORDER>
1
60
62
28
8
16
69
14
36
50
37
66
19
29
13
73
21
47
68
70
51
12
22
55
65
46
27
42
71
17
54
61
48
33
38
35
64
15
26
43
58
67
25
10
57
63
44
39
30
32
59
53
6
45
52
23
3
41
40
11
72
18
4
9
49
7
24
31
20
5
2
56
34

> <PUBCHEM_MMFF94_PARTIAL_CHARGES>
34
1 -0.08
11 -0.15
12 -0.15
13 0.69
14 -0.15
15 -0.15
16 -0.15
17 0.44
18 0.17
19 0.05
2 -0.57
20 -0.11
21 -0.15
22 -0.15
23 0.16
24 0.16
28 0.37
3 -0.73
32 0.15
33 0.15
34 0.15
35 0.15
36 0.15
37 0.37
38 0.15
39 0.15
4 -0.49
40 0.15
41 0.15
42 0.15
5 -0.57
6 -0.62
7 0.44
9 -0.14

> <PUBCHEM_EFFECTIVE_ROTOR_COUNT>
7

> <PUBCHEM_PHARMACOPHORE_FEATURES>
8
1 10 hydrophobe
1 2 acceptor
1 3 donor
1 4 donor
1 6 acceptor
5 1 5 17 18 20 rings
6 6 19 21 22 23 24 rings
6 9 11 12 14 15 16 rings

> <PUBCHEM_HEAVY_ATOM_COUNT>
24

> <PUBCHEM_ATOM_DEF_STEREO_COUNT>
1

> <PUBCHEM_ATOM_UDEF_STEREO_COUNT>
0

> <PUBCHEM_BOND_DEF_STEREO_COUNT>
0

> <PUBCHEM_BOND_UDEF_STEREO_COUNT>
0

> <PUBCHEM_ISOTOPIC_ATOM_COUNT>
0

> <PUBCHEM_COMPONENT_COUNT>
1

> <PUBCHEM_CACTVS_TAUTO_COUNT>
5

> <PUBCHEM_CONFORMER_ID>
0535B55500000001

> <PUBCHEM_MMFF94_ENERGY>
52.6662

> <PUBCHEM_FEATURE_SELFOVERLAP>
40.649

> <PUBCHEM_SHAPE_FINGERPRINT>
10622 236 18337385041389535127
10912923 1 18338809982378215980
11443803 9 18199474256507935913
11545043 162 17847056675161514696
11809386 21 18341612633786445347
12107183 9 18190751829715047497
12342043 65 15576155106445376161
12422481 6 17846216588586656662
12523318 42 17632576046159812051
12555020 224 17603585252739602219
12596602 18 18060418006807816880
12616971 3 18114475491059901537
12839892 36 18131917052511550703
13533116 47 18336827610495248264
13583140 156 16988838341763266617
14211702 104 18410300224142544478
14251751 18 18131349730217890827
14347332 77 18411702127769726599
14528608 73 10663807547608263544
1454969 45 18113903780501564972
14844126 61 18131350813472743955
14848178 5 18335975441237934783
15131766 46 16592287529588229021
15183329 4 16081355354547178414
15188451 53 18201712972737516951
15250474 111 18410578417653133543
15728490 51 18340201999381443118
15806764 133 14851900191563926773
17349148 13 18411145761320837527
17780758 139 18272368655433306793
17857418 61 18409448093924369870
18222031 100 17967524671671300496
19377110 9 18129951198746151688
20028762 73 18410007728844358570
20567600 247 18334850658233851998
20621476 91 16702017629965787495
20645477 70 17603589672661811092
21033648 29 15769506335129094793
21315763 178 18335141947468829392
21424621 283 16627732236803401497
21728266 224 18273215305024551177
220451 1 18336557027555580816
22061861 79 17240762908237304670
22393880 68 16805874204112017947
23081809 10 18334583438680689348
23402539 116 18333452019118476508
23522609 53 18118717394626355788
23559900 14 17822292456547937500
24771293 8 18333170579651660076
312425 54 18270396088623183448
314194 84 18041005025102215664
3504750 166 18266453201081446328
3663271 9 18343301457871650760
397830 11 17203315758957385978
4015057 19 17749680691417123816
439807 62 18191022503519149071
46194498 28 14563685208585189452
5028188 123 18270974458300429700
5104073 3 18130513006280581313
531348 171 18113892716011929565
559249 180 18410011010351502549
5924683 9 18343582928294950225
6431902 208 18334856129837603371
6691757 9 17987805095142787841
6712543 237 18056464068490106634
7495541 125 17846493764353558768
96874 4 18339631343313207431

> <PUBCHEM_SHAPE_MULTIPOLES>
471.96
17.47
3.07
1.61
11.14
0
-0.34
-11.05
2.55
-2.73
0.32
-1.29
0.59
-4.45

> <PUBCHEM_SHAPE_SELFOVERLAP>
997.883

> <PUBCHEM_SHAPE_VOLUME>
265.8

> <PUBCHEM_COORDINATE_TYPE>
2
5
10

$$$$
87406393
  -OEChem-05102415103D

 40 42  0     1  0  0  0  0  0999 V2000
   -2.1971    2.3281    1.8196 S   0  0  0  0  0  0  0  0  0  0  0  0
    4.4308    2.6008   -0.3439 O   0  0  0  0  0  0  0  0  0  0  0  0
    0.4965   -0.2572   -1.0062 O   0  0  0  0  0  0  0  0  0  0  0  0
    2.1280    1.1015   -0.0930 N   0  0  0  0  0  0  0  0  0  0  0  0
   -0.0431    1.3916    0.5753 N   0  0  0  0  0  0  0  0  0  0  0  0
    4.7418    1.6049   -2.3908 N   0  0  0  0  0  0  0  0  0  0  0  0
   -2.2318    0.4010    0.0970 N   0  0  0  0  0  0  0  0  0  0  0  0
   -6.7356   -1.7222   -0.9612 N   0  0  0  0  0  0  0  0  0  0  0  0
    3.2446    0.5279   -0.8177 C   0  0  2  0  0  0  0  0  0  0  0  0
    3.9047   -0.5881   -0.0806 C   0  0  0  0  0  0  0  0  0  0  0  0
    3.9223   -0.5883    1.3141 C   0  0  0  0  0  0  0  0  0  0  0  0
    4.5043   -1.6317   -0.7857 C   0  0  0  0  0  0  0  0  0  0  0  0
    4.2037    1.6780   -1.1231 C   0  0  0  0  0  0  0  0  0  0  0  0
    0.8142    0.6551   -0.2469 C   0  0  0  0  0  0  0  0  0  0  0  0
    4.5393   -1.6318    2.0037 C   0  0  0  0  0  0  0  0  0  0  0  0
    5.1214   -2.6754   -0.0961 C   0  0  0  0  0  0  0  0  0  0  0  0
    5.1389   -2.6755    1.2986 C   0  0  0  0  0  0  0  0  0  0  0  0
   -3.5300    0.6044    0.5226 C   0  0  0  0  0  0  0  0  0  0  0  0
   -1.4439    1.2533    0.7141 C   0  0  0  0  0  0  0  0  0  0  0  0
   -4.6171   -0.1846    0.0194 C   0  0  0  0  0  0  0  0  0  0  0  0
   -3.7089    1.6054    1.4544 C   0  0  0  0  0  0  0  0  0  0  0  0
   -5.8934    0.3603   -0.0672 C   0  0  0  0  0  0  0  0  0  0  0  0
   -4.3987   -1.4973   -0.3837 C   0  0  0  0  0  0  0  0  0  0  0  0
   -6.9093   -0.4429   -0.5600 C   0  0  0  0  0  0  0  0  0  0  0  0
   -5.4815   -2.2173   -0.8625 C   0  0  0  0  0  0  0  0  0  0  0  0
    2.8410    0.1430   -1.7634 H   0  0  0  0  0  0  0  0  0  0  0  0
    2.3089    1.8484    0.5715 H   0  0  0  0  0  0  0  0  0  0  0  0
    3.4778    0.2165    1.8927 H   0  0  0  0  0  0  0  0  0  0  0  0
    4.4986   -1.6438   -1.8724 H   0  0  0  0  0  0  0  0  0  0  0  0
    4.5563   -1.6305    3.0897 H   0  0  0  0  0  0  0  0  0  0  0  0
    5.5886   -3.4878   -0.6451 H   0  0  0  0  0  0  0  0  0  0  0  0
    0.3643    2.1212    1.1536 H   0  0  0  0  0  0  0  0  0  0  0  0
    5.6201   -3.4877    1.8357 H   0  0  0  0  0  0  0  0  0  0  0  0
   -4.6095    1.9469    1.9457 H   0  0  0  0  0  0  0  0  0  0  0  0
    4.5393    0.8411   -3.0276 H   0  0  0  0  0  0  0  0  0  0  0  0
    5.3810    2.3180   -2.7261 H   0  0  0  0  0  0  0  0  0  0  0  0
   -6.1221    1.3822    0.2161 H   0  0  0  0  0  0  0  0  0  0  0  0
   -3.4212   -1.9658   -0.3302 H   0  0  0  0  0  0  0  0  0  0  0  0
   -7.9221   -0.0643   -0.6516 H   0  0  0  0  0  0  0  0  0  0  0  0
   -5.3644   -3.2455   -1.1886 H   0  0  0  0  0  0  0  0  0  0  0  0
  1 19  1  0  0  0  0
  1 21  1  0  0  0  0
  2 13  2  0  0  0  0
  3 14  2  0  0  0  0
  4  9  1  0  0  0  0
  4 14  1  0  0  0  0
  4 27  1  0  0  0  0
  5 14  1  0  0  0  0
  5 19  1  0  0  0  0
  5 32  1  0  0  0  0
  6 13  1  0  0  0  0
  6 35  1  0  0  0  0
  6 36  1  0  0  0  0
  7 18  1  0  0  0  0
  7 19  2  0  0  0  0
  8 24  2  0  0  0  0
  8 25  1  0  0  0  0
  9 10  1  0  0  0  0
  9 13  1  0  0  0  0
  9 26  1  0  0  0  0
 10 11  2  0  0  0  0
 10 12  1  0  0  0  0
 11 15  1  0  0  0  0
 11 28  1  0  0  0  0
 12 16  2  0  0  0  0
 12 29  1  0  0  0  0
 15 17  2  0  0  0  0
 15 30  1  0  0  0  0
 16 17  1  0  0  0  0
 16 31  1  0  0  0  0
 17 33  1  0  0  0  0
 18 20  1  0  0  0  0
 18 21  2  0  0  0  0
 20 22  2  0  0  0  0
 20 23  1  0  0  0  0
 21 34  1  0  0  0  0
 22 24  1  0  0  0  0
 22 37  1  0  0  0  0
 23 25  2  0  0  0  0
 23 38  1  0  0  0  0
 24 39  1  0  0  0  0
 25 40  1  0  0  0  0
M  END
> <PUBCHEM_COMPOUND_CID>
87406393

> <PUBCHEM_CONFORMER_RMSD>
0.8

> <PUBCHEM_CONFORMER_DIVERSEORDER>
1
45
89
54
31
66
29
87
15
93
75
55
6
22
9
84
71
81
44
23
68
82
67
60
79
8
76
21
74
43
86
80
65
16
42
7
90
92
56
13
91
69
88
36
70
39
41
35
4
72
24
50
77
83
46
62
40
20
48
61
52
25
38
64
28
18
63
33
57
19
73
78
10
53
51
32
58
12
59
27
17
49
30
2
34
14
85
5
47
3
37
11
26

> <PUBCHEM_MMFF94_PARTIAL_CHARGES>
39
1 -0.08
10 -0.14
11 -0.15
12 -0.15
13 0.57
14 0.69
15 -0.15
16 -0.15
17 -0.15
18 0.17
19 0.44
2 -0.57
20 0.05
21 -0.11
22 -0.15
23 -0.15
24 0.16
25 0.16
27 0.37
28 0.15
29 0.15
3 -0.57
30 0.15
31 0.15
32 0.37
33 0.15
34 0.15
35 0.37
36 0.37
37 0.15
38 0.15
39 0.15
4 -0.73
40 0.15
5 -0.49
6 -0.8
7 -0.57
8 -0.62
9 0.5

> <PUBCHEM_EFFECTIVE_ROTOR_COUNT>
7

> <PUBCHEM_PHARMACOPHORE_FEATURES>
9
1 2 acceptor
1 3 acceptor
1 4 donor
1 5 donor
1 6 donor
1 8 acceptor
5 1 7 18 19 21 rings
6 10 11 12 15 16 17 rings
6 8 20 22 23 24 25 rings

> <PUBCHEM_HEAVY_ATOM_COUNT>
25

> <PUBCHEM_ATOM_DEF_STEREO_COUNT>
1

> <PUBCHEM_ATOM_UDEF_STEREO_COUNT>
0

> <PUBCHEM_BOND_DEF_STEREO_COUNT>
0

> <PUBCHEM_BOND_UDEF_STEREO_COUNT>
0

> <PUBCHEM_ISOTOPIC_ATOM_COUNT>
0

> <PUBCHEM_COMPONENT_COUNT>
1

> <PUBCHEM_CACTVS_TAUTO_COUNT>
15

> <PUBCHEM_CONFORMER_ID>
0535B73900000001

> <PUBCHEM_MMFF94_ENERGY>
61.9877

> <PUBCHEM_FEATURE_SELFOVERLAP>
45.725

> <PUBCHEM_SHAPE_FINGERPRINT>
10319926 262 17346041043506877664
10595046 47 18340773718661537813
10912923 1 18341623602473835401
11135609 149 17387105638753003094
11443803 9 18199474432633041812
11475781 23 15502365751480644941
11719270 70 17988640775176600903
12166972 35 18261112980685496069
12342043 65 15410077087578533860
12596602 18 18201711809149611490
12616971 3 18336558105260180185
12661589 4 17775293763737045990
12839892 36 17988359265381066151
13533116 47 18335138695935967104
1361 4 18261675999485514275
14211702 104 18271811194306178143
14251752 14 18261667087781172789
14347332 77 18410853231562790361
15001296 14 18187919612215727939
15183329 4 17894343368033237351
15188451 53 18271515403897118770
15250474 111 18341616979729177779
17134984 74 18115026432200490827
17349148 13 18410019801305571307
17857418 61 18410854343605690931
18222031 100 18334295319204624160
18681886 176 17703803543701150620
20028762 73 18341046320505262566
20645477 70 17822010891814276240
21033648 29 15195287482665639593
21344244 78 18340190922513562040
220451 1 18339091461987133693
22061861 79 17095242505941857459
2215653 11 16226051058997971203
23081809 10 18411142433349066977
23522609 53 18126316158045701881
23559900 14 18130497657032712273
2748736 6 10737549641105829199
29717793 49 18187081732793967057
3004659 81 18408041805794253542
312425 54 17274266020016216907
3472631 163 10881692286137118435
3633792 109 18040994025026351700
3886686 26 17051905031462762987
397830 11 13398338131984468863
439807 62 18336827602528254087
5085150 59 17917705761420586103
5104073 3 17561366188588048225
531348 171 18189049816507488701
559249 180 18340202982760025465
5951187 136 11458723698725682246
59682541 52 16805591543729757803
6679774 75 17050172656404267120
8988823 20 17748824125072829676
960060 61 16878232978484109070
96874 4 18337096874400603491

> <PUBCHEM_SHAPE_MULTIPOLES>
481.69
18.25
2.89
1.62
13.44
0.4
0.17
10.39
-2.61
-1.91
0.25
-1.97
-0.37
-4.31

> <PUBCHEM_SHAPE_SELFOVERLAP>
1029.152

> <PUBCHEM_SHAPE_VOLUME>
267.9

> <PUBCHEM_COORDINATE_TYPE>
2
5
10

$$$$
87406217
  -OEChem-05102415103D

 43 45  0     1  0  0  0  0  0999 V2000
    2.1310    2.4873   -1.5794 S   0  0  0  0  0  0  0  0  0  0  0  0
   -4.8488    1.9755    0.3442 O   0  0  0  0  0  0  0  0  0  0  0  0
   -0.4242   -0.3880    1.0904 O   0  0  0  0  0  0  0  0  0  0  0  0
   -2.1071    0.9997    0.3284 N   0  0  0  0  0  0  0  0  0  0  0  0
    0.0337    1.3971   -0.3637 N   0  0  0  0  0  0  0  0  0  0  0  0
    2.2575    0.4284   -0.0213 N   0  0  0  0  0  0  0  0  0  0  0  0
    6.8373   -1.6550    0.7502 N   0  0  0  0  0  0  0  0  0  0  0  0
   -3.1945    0.3376    1.0336 C   0  0  2  0  0  0  0  0  0  0  0  0
   -3.7960   -0.7594    0.2217 C   0  0  0  0  0  0  0  0  0  0  0  0
   -4.2182    1.3966    1.4821 C   0  0  0  0  0  0  0  0  0  0  0  0
   -3.8666   -0.6412   -1.1663 C   0  0  0  0  0  0  0  0  0  0  0  0
   -4.2881   -1.9033    0.8502 C   0  0  0  0  0  0  0  0  0  0  0  0
   -0.7837    0.5742    0.4161 C   0  0  0  0  0  0  0  0  0  0  0  0
   -4.4290   -1.6670   -1.9259 C   0  0  0  0  0  0  0  0  0  0  0  0
   -4.8505   -2.9292    0.0906 C   0  0  0  0  0  0  0  0  0  0  0  0
   -4.9210   -2.8110   -1.2974 C   0  0  0  0  0  0  0  0  0  0  0  0
    1.4333    1.3071   -0.5474 C   0  0  0  0  0  0  0  0  0  0  0  0
    3.5387    0.6997   -0.4603 C   0  0  0  0  0  0  0  0  0  0  0  0
   -5.7963    2.9636    0.7225 C   0  0  0  0  0  0  0  0  0  0  0  0
    4.6574   -0.0988   -0.0498 C   0  0  0  0  0  0  0  0  0  0  0  0
    3.6688    1.7772   -1.3113 C   0  0  0  0  0  0  0  0  0  0  0  0
    5.9221    0.4704    0.0500 C   0  0  0  0  0  0  0  0  0  0  0  0
    4.4814   -1.4452    0.2500 C   0  0  0  0  0  0  0  0  0  0  0  0
    6.9696   -0.3432    0.4507 C   0  0  0  0  0  0  0  0  0  0  0  0
    5.5933   -2.1731    0.6418 C   0  0  0  0  0  0  0  0  0  0  0  0
   -2.7564   -0.0990    1.9408 H   0  0  0  0  0  0  0  0  0  0  0  0
   -4.9822    0.9292    2.1155 H   0  0  0  0  0  0  0  0  0  0  0  0
   -3.7160    2.1820    2.0606 H   0  0  0  0  0  0  0  0  0  0  0  0
   -2.3311    1.7671   -0.2982 H   0  0  0  0  0  0  0  0  0  0  0  0
   -3.5055    0.2419   -1.6858 H   0  0  0  0  0  0  0  0  0  0  0  0
   -4.2413   -2.0072    1.9310 H   0  0  0  0  0  0  0  0  0  0  0  0
   -4.4871   -1.5740   -3.0064 H   0  0  0  0  0  0  0  0  0  0  0  0
   -5.2342   -3.8197    0.5800 H   0  0  0  0  0  0  0  0  0  0  0  0
   -5.3597   -3.6093   -1.8888 H   0  0  0  0  0  0  0  0  0  0  0  0
   -0.4061    2.1607   -0.8700 H   0  0  0  0  0  0  0  0  0  0  0  0
   -6.5865    2.5225    1.3376 H   0  0  0  0  0  0  0  0  0  0  0  0
   -5.3062    3.7781    1.2647 H   0  0  0  0  0  0  0  0  0  0  0  0
   -6.2485    3.3720   -0.1852 H   0  0  0  0  0  0  0  0  0  0  0  0
    4.5477    2.1807   -1.7949 H   0  0  0  0  0  0  0  0  0  0  0  0
    6.1185    1.5176   -0.1544 H   0  0  0  0  0  0  0  0  0  0  0  0
    3.5143   -1.9331    0.1822 H   0  0  0  0  0  0  0  0  0  0  0  0
    7.9751    0.0529    0.5482 H   0  0  0  0  0  0  0  0  0  0  0  0
    5.5096   -3.2271    0.8857 H   0  0  0  0  0  0  0  0  0  0  0  0
  1 17  1  0  0  0  0
  1 21  1  0  0  0  0
  2 10  1  0  0  0  0
  2 19  1  0  0  0  0
  3 13  2  0  0  0  0
  4  8  1  0  0  0  0
  4 13  1  0  0  0  0
  4 29  1  0  0  0  0
  5 13  1  0  0  0  0
  5 17  1  0  0  0  0
  5 35  1  0  0  0  0
  6 17  2  0  0  0  0
  6 18  1  0  0  0  0
  7 24  2  0  0  0  0
  7 25  1  0  0  0  0
  8  9  1  0  0  0  0
  8 10  1  0  0  0  0
  8 26  1  0  0  0  0
  9 11  2  0  0  0  0
  9 12  1  0  0  0  0
 10 27  1  0  0  0  0
 10 28  1  0  0  0  0
 11 14  1  0  0  0  0
 11 30  1  0  0  0  0
 12 15  2  0  0  0  0
 12 31  1  0  0  0  0
 14 16  2  0  0  0  0
 14 32  1  0  0  0  0
 15 16  1  0  0  0  0
 15 33  1  0  0  0  0
 16 34  1  0  0  0  0
 18 20  1  0  0  0  0
 18 21  2  0  0  0  0
 19 36  1  0  0  0  0
 19 37  1  0  0  0  0
 19 38  1  0  0  0  0
 20 22  2  0  0  0  0
 20 23  1  0  0  0  0
 21 39  1  0  0  0  0
 22 24  1  0  0  0  0
 22 40  1  0  0  0  0
 23 25  2  0  0  0  0
 23 41  1  0  0  0  0
 24 42  1  0  0  0  0
 25 43  1  0  0  0  0
M  END
> <PUBCHEM_COMPOUND_CID>
87406217

> <PUBCHEM_CONFORMER_RMSD>
0.8

> <PUBCHEM_CONFORMER_DIVERSEORDER>
1
113
36
118
37
92
119
69
93
115
10
110
89
112
40
20
17
32
87
43
51
88
71
73
100
108
46
23
83
70
91
79
7
99
19
68
5
117
106
41
104
95
44
107
85
111
82
98
122
54
78
47
64
25
90
24
13
116
28
22
97
3
76
101
52
57
38
26
33
77
66
123
102
63
9
59
120
103
4
15
53
48
55
75
114
39
30
11
62
72
16
109
2
67
96
34
29
81
45
105
35
18
74
84
42
60
31
86
94
8
50
80
12
121
58
14
21
61
65
6
27
56
49

> <PUBCHEM_MMFF94_PARTIAL_CHARGES>
37
1 -0.08
10 0.28
11 -0.15
12 -0.15
13 0.69
14 -0.15
15 -0.15
16 -0.15
17 0.44
18 0.17
19 0.28
2 -0.56
20 0.05
21 -0.11
22 -0.15
23 -0.15
24 0.16
25 0.16
29 0.37
3 -0.57
30 0.15
31 0.15
32 0.15
33 0.15
34 0.15
35 0.37
39 0.15
4 -0.73
40 0.15
41 0.15
42 0.15
43 0.15
5 -0.49
6 -0.57
7 -0.62
8 0.44
9 -0.14

> <PUBCHEM_EFFECTIVE_ROTOR_COUNT>
8

> <PUBCHEM_PHARMACOPHORE_FEATURES>
8
1 2 acceptor
1 3 acceptor
1 4 donor
1 5 donor
1 7 acceptor
5 1 6 17 18 21 rings
6 7 20 22 23 24 25 rings
6 9 11 12 14 15 16 rings

> <PUBCHEM_HEAVY_ATOM_COUNT>
25

> <PUBCHEM_ATOM_DEF_STEREO_COUNT>
1

> <PUBCHEM_ATOM_UDEF_STEREO_COUNT>
0

> <PUBCHEM_BOND_DEF_STEREO_COUNT>
0

> <PUBCHEM_BOND_UDEF_STEREO_COUNT>
0

> <PUBCHEM_ISOTOPIC_ATOM_COUNT>
0

> <PUBCHEM_COMPONENT_COUNT>
1

> <PUBCHEM_CACTVS_TAUTO_COUNT>
5

> <PUBCHEM_CONFORMER_ID>
0535B68900000001

> <PUBCHEM_MMFF94_ENERGY>
60.255

> <PUBCHEM_FEATURE_SELFOVERLAP>
40.652

> <PUBCHEM_SHAPE_FINGERPRINT>
10595046 47 18265339580164726373
10622 236 18339634672160437511
11331351 85 18262526871129967860
11545043 162 17846776325518879145
11796584 16 18202006490971219966
11809386 21 18342738555141919527
12107183 9 18263370204721382457
12236239 1 18412826893705086656
12422481 6 17846779564441685622
12596602 18 17989486329904092978
12616971 3 18114191829797092157
13073987 5 18337677532466736449
13533116 47 18338516473377531736
13583140 156 16988840562203297353
14211702 104 18412270562049063398
14251751 18 18060136569900483018
14347332 77 18341613789132745447
15021287 119 17822019696081144989
15131766 46 15939828529224927925
15183329 4 17313095354786795786
15188451 53 18131344245555222751
15250474 111 18338801220565746014
15728490 51 18269833268162521030
1577012 14 18335707148312310556
17349148 13 18341341079598710486
17857418 61 18411136961170309254
20028762 73 18412260641149545182
21315763 178 18408323259659910322
21728266 224 18202283627920217853
22061861 79 17458340875007088086
22393880 68 17023453270003175491
23081809 10 18334300889919976284
23402539 116 18335422361240789368
23522609 53 18045251347546770612
23559900 14 17895474864119157232
24771293 8 18261391187799106320
312425 54 18342452613224914568
314194 84 18187653505237935992
397830 11 17417518224961188970
4015057 19 17895764022570879648
439807 62 18192991741597581007
4403749 210 17774989211795018806
5028188 123 18271817805209744052
5085150 59 17918268741117213751
5104073 3 18131357448284938024
531348 171 18187076227099490165
559249 180 18411699860048184281
6431902 208 18408602586742068338
6691757 9 17917155996958845313
6712543 237 18057025931922297058
7970288 3 17981605176501712623
96874 4 18341320201752889030

> <PUBCHEM_SHAPE_MULTIPOLES>
486.68
18.66
3.23
1.4
14.71
0.19
0.43
7.34
-2.34
-4.04
0.37
-1.31
-0.05
-3.85

> <PUBCHEM_SHAPE_SELFOVERLAP>
1028.226

> <PUBCHEM_SHAPE_VOLUME>
274

> <PUBCHEM_COORDINATE_TYPE>
2
5
10

$$$$
89421243
  -OEChem-05102415103D

 43 45  0     1  0  0  0  0  0999 V2000
   -2.2268    2.7603    0.2630 S   0  0  0  0  0  0  0  0  0  0  0  0
    6.7098    1.5177   -0.3610 O   0  0  0  0  0  0  0  0  0  0  0  0
   -0.2156   -1.3965   -0.5118 O   0  0  0  0  0  0  0  0  0  0  0  0
    1.6771   -0.0709   -0.4973 N   0  0  0  0  0  0  0  0  0  0  0  0
   -0.3568    0.9216   -0.1694 N   0  0  0  0  0  0  0  0  0  0  0  0
   -2.7065    0.2396   -0.0506 N   0  0  0  0  0  0  0  0  0  0  0  0
   -7.5610   -1.2740    0.1812 N   0  0  0  0  0  0  0  0  0  0  0  0
    2.6286   -1.1428   -0.7370 C   0  0  2  0  0  0  0  0  0  0  0  0
    3.9514   -0.8719   -0.1042 C   0  0  0  0  0  0  0  0  0  0  0  0
    2.7236   -1.4233   -2.2442 C   0  0  0  0  0  0  0  0  0  0  0  0
    4.7211    0.2096   -0.5329 C   0  0  0  0  0  0  0  0  0  0  0  0
    4.4196   -1.7004    0.9158 C   0  0  0  0  0  0  0  0  0  0  0  0
    5.9588    0.4628    0.0585 C   0  0  0  0  0  0  0  0  0  0  0  0
    0.3035   -0.2881   -0.4019 C   0  0  0  0  0  0  0  0  0  0  0  0
    5.6574   -1.4473    1.5070 C   0  0  0  0  0  0  0  0  0  0  0  0
    6.4269   -0.3656    1.0785 C   0  0  0  0  0  0  0  0  0  0  0  0
   -1.7458    1.1360   -0.0114 C   0  0  0  0  0  0  0  0  0  0  0  0
   -3.9171    0.8735    0.1500 C   0  0  0  0  0  0  0  0  0  0  0  0
   -5.1529    0.1452    0.1606 C   0  0  0  0  0  0  0  0  0  0  0  0
   -3.8588    2.2385    0.3383 C   0  0  0  0  0  0  0  0  0  0  0  0
   -5.1792   -1.1787    0.5849 C   0  0  0  0  0  0  0  0  0  0  0  0
   -6.3292    0.7603   -0.2536 C   0  0  0  0  0  0  0  0  0  0  0  0
    7.9657    1.7183    0.2859 C   0  0  0  0  0  0  0  0  0  0  0  0
   -6.3977   -1.8383    0.5762 C   0  0  0  0  0  0  0  0  0  0  0  0
   -7.4962    0.0140   -0.2246 C   0  0  0  0  0  0  0  0  0  0  0  0
    2.2019   -2.0480   -0.2850 H   0  0  0  0  0  0  0  0  0  0  0  0
    3.4330   -2.2329   -2.4479 H   0  0  0  0  0  0  0  0  0  0  0  0
    1.7489   -1.7189   -2.6479 H   0  0  0  0  0  0  0  0  0  0  0  0
    3.0498   -0.5394   -2.8037 H   0  0  0  0  0  0  0  0  0  0  0  0
    2.0178    0.8844   -0.4434 H   0  0  0  0  0  0  0  0  0  0  0  0
    4.3672    0.8658   -1.3242 H   0  0  0  0  0  0  0  0  0  0  0  0
    3.8330   -2.5471    1.2621 H   0  0  0  0  0  0  0  0  0  0  0  0
    6.0212   -2.0930    2.3011 H   0  0  0  0  0  0  0  0  0  0  0  0
    7.3781   -0.2267    1.5808 H   0  0  0  0  0  0  0  0  0  0  0  0
    0.2066    1.7646   -0.1007 H   0  0  0  0  0  0  0  0  0  0  0  0
   -4.6511    2.9505    0.5240 H   0  0  0  0  0  0  0  0  0  0  0  0
   -4.2876   -1.6982    0.9207 H   0  0  0  0  0  0  0  0  0  0  0  0
   -6.3688    1.7840   -0.6104 H   0  0  0  0  0  0  0  0  0  0  0  0
    8.4281    2.5989   -0.1719 H   0  0  0  0  0  0  0  0  0  0  0  0
    8.6448    0.8759    0.1161 H   0  0  0  0  0  0  0  0  0  0  0  0
    7.8387    1.9411    1.3508 H   0  0  0  0  0  0  0  0  0  0  0  0
   -6.4723   -2.8716    0.8987 H   0  0  0  0  0  0  0  0  0  0  0  0
   -8.4399    0.4458   -0.5413 H   0  0  0  0  0  0  0  0  0  0  0  0
  1 17  1  0  0  0  0
  1 20  1  0  0  0  0
  2 13  1  0  0  0  0
  2 23  1  0  0  0  0
  3 14  2  0  0  0  0
  4  8  1  0  0  0  0
  4 14  1  0  0  0  0
  4 30  1  0  0  0  0
  5 14  1  0  0  0  0
  5 17  1  0  0  0  0
  5 35  1  0  0  0  0
  6 17  2  0  0  0  0
  6 18  1  0  0  0  0
  7 24  2  0  0  0  0
  7 25  1  0  0  0  0
  8  9  1  0  0  0  0
  8 10  1  0  0  0  0
  8 26  1  0  0  0  0
  9 11  2  0  0  0  0
  9 12  1  0  0  0  0
 10 27  1  0  0  0  0
 10 28  1  0  0  0  0
 10 29  1  0  0  0  0
 11 13  1  0  0  0  0
 11 31  1  0  0  0  0
 12 15  2  0  0  0  0
 12 32  1  0  0  0  0
 13 16  2  0  0  0  0
 15 16  1  0  0  0  0
 15 33  1  0  0  0  0
 16 34  1  0  0  0  0
 18 19  1  0  0  0  0
 18 20  2  0  0  0  0
 19 21  2  0  0  0  0
 19 22  1  0  0  0  0
 20 36  1  0  0  0  0
 21 24  1  0  0  0  0
 21 37  1  0  0  0  0
 22 25  2  0  0  0  0
 22 38  1  0  0  0  0
 23 39  1  0  0  0  0
 23 40  1  0  0  0  0
 23 41  1  0  0  0  0
 24 42  1  0  0  0  0
 25 43  1  0  0  0  0
M  END
> <PUBCHEM_COMPOUND_CID>
89421243

> <PUBCHEM_CONFORMER_RMSD>
0.8

> <PUBCHEM_CONFORMER_DIVERSEORDER>
1
156
38
41
141
27
90
120
89
202
145
203
180
100
164
109
150
130
174
87
123
119
158
69
196
111
48
205
6
25
209
190
96
98
187
110
189
153
58
91
121
210
81
55
114
142
116
206
39
166
115
224
184
107
162
173
46
151
220
175
222
15
59
194
31
45
186
101
200
214
56
68
213
64
129
221
125
199
95
75
163
183
18
191
143
16
131
3
74
160
113
217
204
34
20
99
102
223
12
62
7
37
23
80
215
105
9
19
207
112
179
84
134
108
30
176
177
118
43
47
201
35
161
70
24
76
51
33
94
73
197
188
17
159
182
122
135
208
149
198
165
192
97
127
146
57
133
106
167
211
132
49
82
14
148
85
63
147
13
28
170
104
86
212
216
40
88
172
93
181
36
50
144
218
44
2
29
168
92
195
185
137
124
178
8
60
219
171
152
53
4
103
117
67
52
54
65
154
128
79
21
169
5
77
193
71
61
11
78
42
26
157
72
32
83
10
66
140
126
22
138
136
155
139

> <PUBCHEM_MMFF94_PARTIAL_CHARGES>
35
1 -0.08
11 -0.15
12 -0.15
13 0.08
14 0.69
15 -0.15
16 -0.15
17 0.44
18 0.17
19 0.05
2 -0.36
20 -0.11
21 -0.15
22 -0.15
23 0.28
24 0.16
25 0.16
3 -0.57
30 0.37
31 0.15
32 0.15
33 0.15
34 0.15
35 0.37
36 0.15
37 0.15
38 0.15
4 -0.73
42 0.15
43 0.15
5 -0.49
6 -0.57
7 -0.62
8 0.44
9 -0.14

> <PUBCHEM_EFFECTIVE_ROTOR_COUNT>
7

> <PUBCHEM_PHARMACOPHORE_FEATURES>
8
1 2 acceptor
1 3 acceptor
1 4 donor
1 5 donor
1 7 acceptor
5 1 6 17 18 20 rings
6 7 19 21 22 24 25 rings
6 9 11 12 13 15 16 rings

> <PUBCHEM_HEAVY_ATOM_COUNT>
25

> <PUBCHEM_ATOM_DEF_STEREO_COUNT>
1

> <PUBCHEM_ATOM_UDEF_STEREO_COUNT>
0

> <PUBCHEM_BOND_DEF_STEREO_COUNT>
0

> <PUBCHEM_BOND_UDEF_STEREO_COUNT>
0

> <PUBCHEM_ISOTOPIC_ATOM_COUNT>
0

> <PUBCHEM_COMPONENT_COUNT>
1

> <PUBCHEM_CACTVS_TAUTO_COUNT>
5

> <PUBCHEM_CONFORMER_ID>
055475BB00000001

> <PUBCHEM_MMFF94_ENERGY>
66.6116

> <PUBCHEM_FEATURE_SELFOVERLAP>
40.651

> <PUBCHEM_SHAPE_FINGERPRINT>
10 15 18343862229712273478
10595046 47 18334857178157419696
106641 1 18335417993728216560
10939801 23 18338234968030309190
11315181 36 18344148095131933057
11408170 108 15502643855335530736
11646440 116 16917344831966734864
11719270 70 18411418388660221943
11724838 91 18334858338183587884
11796584 16 8142074382614803800
12166972 35 17603589629369461789
12236239 1 17894349956238678403
12516196 113 18201721739245861249
12596602 18 18187360996105146336
12730499 353 17131836435158673110
12838862 33 18341317926416396503
12977781 61 17026018512378048737
13073987 5 18336546019258761754
13177829 20 18335136505755756178
13533116 47 17604429592435137066
13899415 154 17203327819278547656
13914758 101 15864346913979965549
14068700 686 18059019354565193173
14251732 16 18410012143563531248
14251764 18 18335700563436362358
14461889 52 18272652328990479494
1454969 45 18272086115082920541
14856354 85 14908177577998956453
15183329 4 11602821272185232062
15188451 53 17894907395638302298
15475509 8 11815897872895437346
15716309 27 18411697677793542583
15728490 51 18337107964216566862
15840311 113 18260270794293571500
1768 4 16844994810938277634
17857418 61 18040437672522492363
20511986 3 17676478428676045539
20567600 234 18113615703712032668
21223535 225 14057268767758324023
21365058 27 15626227926872642861
21623969 137 17846780685069173695
22149856 69 17845953839782945843
2215653 11 12973607720370476330
22224240 67 17240481434347011120
23081809 10 17313398776851229877
23389318 12 18201708600856462077
23559900 14 18335416911845331617
28498 318 7925639903684995088
32027 91 17691124833996624055
34797466 226 17560807641139764852
3663271 9 18335420128031641944
4073 2 18270688567495970947
4280585 95 18186801396812076909
4325135 7 18413389843210180324
437795 51 17489300940870945328
5104073 3 17844252817695474515
5283156 175 17821730512228273499
5758199 1 16415481558182721591
59682541 35 18272931665025575691
67856867 119 18261118525187952301
9689198 14 13758075212140895651

> <PUBCHEM_SHAPE_MULTIPOLES>
486.68
24.16
2.24
1.1
0.34
0.86
0.27
-0.77
-4.67
0.59
-0.25
-1.53
-0.55
-0.02

> <PUBCHEM_SHAPE_SELFOVERLAP>
1032.297

> <PUBCHEM_SHAPE_VOLUME>
274

> <PUBCHEM_COORDINATE_TYPE>
2
5
10

$$$$
89421265
  -OEChem-05102415103D

 39 41  0     1  0  0  0  0  0999 V2000
   -1.9792    2.7679    0.3313 S   0  0  0  0  0  0  0  0  0  0  0  0
    6.9824    1.7885   -0.2682 F   0  0  0  0  0  0  0  0  0  0  0  0
    0.1585   -1.3078   -0.5305 O   0  0  0  0  0  0  0  0  0  0  0  0
    2.0108    0.0727   -0.4748 N   0  0  0  0  0  0  0  0  0  0  0  0
   -0.0532    0.9963   -0.1344 N   0  0  0  0  0  0  0  0  0  0  0  0
   -2.3822    0.2423   -0.0441 N   0  0  0  0  0  0  0  0  0  0  0  0
   -7.1904   -1.4198    0.1265 N   0  0  0  0  0  0  0  0  0  0  0  0
    2.9948   -0.9646   -0.7347 C   0  0  2  0  0  0  0  0  0  0  0  0
    4.3060   -0.6697   -0.0891 C   0  0  0  0  0  0  0  0  0  0  0  0
    3.1047   -1.2066   -2.2476 C   0  0  0  0  0  0  0  0  0  0  0  0
    5.0453    0.4439   -0.4881 C   0  0  0  0  0  0  0  0  0  0  0  0
    4.7939   -1.5079    0.9136 C   0  0  0  0  0  0  0  0  0  0  0  0
    0.6438   -0.1874   -0.3919 C   0  0  0  0  0  0  0  0  0  0  0  0
    6.2723    0.7194    0.1156 C   0  0  0  0  0  0  0  0  0  0  0  0
    6.0210   -1.2327    1.5170 C   0  0  0  0  0  0  0  0  0  0  0  0
    6.7601   -0.1188    1.1182 C   0  0  0  0  0  0  0  0  0  0  0  0
   -1.4488    1.1656    0.0213 C   0  0  0  0  0  0  0  0  0  0  0  0
   -3.6121    0.8351    0.1651 C   0  0  0  0  0  0  0  0  0  0  0  0
   -4.8255    0.0704    0.1520 C   0  0  0  0  0  0  0  0  0  0  0  0
   -3.5952    2.1963    0.3859 C   0  0  0  0  0  0  0  0  0  0  0  0
   -6.0178    0.6600   -0.2538 C   0  0  0  0  0  0  0  0  0  0  0  0
   -4.8144   -1.2634    0.5448 C   0  0  0  0  0  0  0  0  0  0  0  0
   -7.1622   -0.1211   -0.2485 C   0  0  0  0  0  0  0  0  0  0  0  0
   -6.0127   -1.9586    0.5143 C   0  0  0  0  0  0  0  0  0  0  0  0
    2.5931   -1.8925   -0.3063 H   0  0  0  0  0  0  0  0  0  0  0  0
    2.1409   -1.5208   -2.6632 H   0  0  0  0  0  0  0  0  0  0  0  0
    3.8384   -1.9901   -2.4667 H   0  0  0  0  0  0  0  0  0  0  0  0
    3.4074   -0.3005   -2.7844 H   0  0  0  0  0  0  0  0  0  0  0  0
    2.3227    1.0361   -0.3968 H   0  0  0  0  0  0  0  0  0  0  0  0
    4.6815    1.1113   -1.2645 H   0  0  0  0  0  0  0  0  0  0  0  0
    4.2310   -2.3796    1.2367 H   0  0  0  0  0  0  0  0  0  0  0  0
    6.4011   -1.8852    2.2976 H   0  0  0  0  0  0  0  0  0  0  0  0
    0.4845    1.8538   -0.0428 H   0  0  0  0  0  0  0  0  0  0  0  0
    7.7155    0.0959    1.5879 H   0  0  0  0  0  0  0  0  0  0  0  0
   -4.4091    2.8799    0.5841 H   0  0  0  0  0  0  0  0  0  0  0  0
   -6.0862    1.6903   -0.5866 H   0  0  0  0  0  0  0  0  0  0  0  0
   -3.9092   -1.7641    0.8730 H   0  0  0  0  0  0  0  0  0  0  0  0
   -8.1169    0.2898   -0.5598 H   0  0  0  0  0  0  0  0  0  0  0  0
   -6.0579   -3.0010    0.8120 H   0  0  0  0  0  0  0  0  0  0  0  0
  1 17  1  0  0  0  0
  1 20  1  0  0  0  0
  2 14  1  0  0  0  0
  3 13  2  0  0  0  0
  4  8  1  0  0  0  0
  4 13  1  0  0  0  0
  4 29  1  0  0  0  0
  5 13  1  0  0  0  0
  5 17  1  0  0  0  0
  5 33  1  0  0  0  0
  6 17  2  0  0  0  0
  6 18  1  0  0  0  0
  7 23  2  0  0  0  0
  7 24  1  0  0  0  0
  8  9  1  0  0  0  0
  8 10  1  0  0  0  0
  8 25  1  0  0  0  0
  9 11  2  0  0  0  0
  9 12  1  0  0  0  0
 10 26  1  0  0  0  0
 10 27  1  0  0  0  0
 10 28  1  0  0  0  0
 11 14  1  0  0  0  0
 11 30  1  0  0  0  0
 12 15  2  0  0  0  0
 12 31  1  0  0  0  0
 14 16  2  0  0  0  0
 15 16  1  0  0  0  0
 15 32  1  0  0  0  0
 16 34  1  0  0  0  0
 18 19  1  0  0  0  0
 18 20  2  0  0  0  0
 19 21  2  0  0  0  0
 19 22  1  0  0  0  0
 20 35  1  0  0  0  0
 21 23  1  0  0  0  0
 21 36  1  0  0  0  0
 22 24  2  0  0  0  0
 22 37  1  0  0  0  0
 23 38  1  0  0  0  0
 24 39  1  0  0  0  0
M  END
> <PUBCHEM_COMPOUND_CID>
89421265

> <PUBCHEM_CONFORMER_RMSD>
0.8

> <PUBCHEM_CONFORMER_DIVERSEORDER>
1
51
43
120
77
128
86
101
107
95
89
67
44
68
14
103
91
41
16
88
53
100
38
123
2
127
90
96
110
57
81
8
66
42
94
112
23
87
113
116
83
72
69
34
102
92
24
64
98
97
70
105
32
117
18
119
114
65
71
75
130
10
111
3
28
132
109
33
121
37
45
60
59
40
46
9
115
63
104
78
50
129
13
58
118
21
131
62
73
80
99
29
126
54
27
106
30
74
26
122
76
47
12
31
52
125
17
4
19
25
6
35
82
93
15
108
85
55
7
124
11
49
36
39
20
5
79
22
56
84
61
48

> <PUBCHEM_MMFF94_PARTIAL_CHARGES>
34
1 -0.08
11 -0.15
12 -0.15
13 0.69
14 0.19
15 -0.15
16 -0.15
17 0.44
18 0.17
19 0.05
2 -0.19
20 -0.11
21 -0.15
22 -0.15
23 0.16
24 0.16
29 0.37
3 -0.57
30 0.15
31 0.15
32 0.15
33 0.37
34 0.15
35 0.15
36 0.15
37 0.15
38 0.15
39 0.15
4 -0.73
5 -0.49
6 -0.57
7 -0.62
8 0.44
9 -0.14

> <PUBCHEM_EFFECTIVE_ROTOR_COUNT>
6

> <PUBCHEM_PHARMACOPHORE_FEATURES>
7
1 3 acceptor
1 4 donor
1 5 donor
1 7 acceptor
5 1 6 17 18 20 rings
6 7 19 21 22 23 24 rings
6 9 11 12 14 15 16 rings

> <PUBCHEM_HEAVY_ATOM_COUNT>
24

> <PUBCHEM_ATOM_DEF_STEREO_COUNT>
1

> <PUBCHEM_ATOM_UDEF_STEREO_COUNT>
0

> <PUBCHEM_BOND_DEF_STEREO_COUNT>
0

> <PUBCHEM_BOND_UDEF_STEREO_COUNT>
0

> <PUBCHEM_ISOTOPIC_ATOM_COUNT>
0

> <PUBCHEM_COMPONENT_COUNT>
1

> <PUBCHEM_CACTVS_TAUTO_COUNT>
5

> <PUBCHEM_CONFORMER_ID>
055475D100000001

> <PUBCHEM_MMFF94_ENERGY>
52.313

> <PUBCHEM_FEATURE_SELFOVERLAP>
35.576

> <PUBCHEM_SHAPE_FINGERPRINT>
10 15 18201715172119494450
10595046 47 18334295336453325200
10638233 991 13254789140229958834
106641 1 18410568505648849144
10939801 23 18338799034812260646
11315181 36 18341897403319596353
11408170 108 15936678260917667904
11646440 116 16845569816838765184
11719270 70 18411980247797412654
11724838 91 18335420188746752636
11796584 16 7925621229431163744
12166972 35 17603588534168658028
12236239 1 17894348865063751643
12516196 113 18202566172644641009
12596602 18 18187361009053345208
12730499 353 17060341795479825614
12838862 33 18341880880580408575
13073987 5 18270117907606956234
13533116 47 17676766475406276578
13668630 136 16008751303335832363
13914758 101 16009023952376321621
13964095 4 8862942788295738298
14068700 686 17988087664628835333
14251732 16 18410575102191315664
14251764 18 18408321111722730862
14461889 52 18273496762726758918
15183329 4 11746934261406572478
15188451 53 17967527948430498282
15716309 27 18412260636204990711
15840311 113 18187650250397180820
15927050 60 17481139424808729580
1768 4 16773500171275397336
17834072 8 11891335343801222823
17857418 61 18040718052060938003
19377110 9 18411987931530237432
20511986 3 17676758804119944899
21223535 225 14201664326925148231
21365058 27 15410618098854344813
21623969 137 17775287144611849110
21859007 373 11747210320609391054
22061861 79 14273743940442432083
22149856 69 17774178833023293179
2215653 11 13118003284111907648
22224240 67 16774075181170126071
23081809 10 17386017130261662524
23198884 109 15430038760615480423
23559900 14 18335978770761047705
29717793 49 15574717980343792926
32027 91 17763182436413470478
34797466 226 17489875955640890044
3663271 9 18336546032317847920
4280585 95 18259983791155561861
4325135 7 18342176674329218172
5104073 3 17844815775985590355
5283156 175 17894349960881610507
54076057 127 15482676771498886358
59682541 35 18059570329901925298
67856867 119 18261398900505374565
8988823 20 16515687758546938204
9689198 14 13542467583251302707

> <PUBCHEM_SHAPE_MULTIPOLES>
464.69
22.22
2.14
1.12
1.06
0.85
-0.28
-4.7
4.33
-1.72
0.26
1.81
-0.47
-0.11

> <PUBCHEM_SHAPE_SELFOVERLAP>
990.755

> <PUBCHEM_SHAPE_VOLUME>
260.4

> <PUBCHEM_COORDINATE_TYPE>
2
5
10

$$$$
89421450
  -OEChem-05102415103D

 42 44  0     1  0  0  0  0  0999 V2000
   -2.1684    2.8915   -0.5793 S   0  0  0  0  0  0  0  0  0  0  0  0
    0.5919   -0.7015    0.4362 O   0  0  0  0  0  0  0  0  0  0  0  0
    2.2883    0.8616    0.2419 N   0  0  0  0  0  0  0  0  0  0  0  0
    0.0444    1.4959   -0.0975 N   0  0  0  0  0  0  0  0  0  0  0  0
   -2.1321    0.3698   -0.0114 N   0  0  0  0  0  0  0  0  0  0  0  0
   -6.6023   -2.0564    0.1922 N   0  0  0  0  0  0  0  0  0  0  0  0
    3.2632    0.2208    1.1222 C   0  0  1  0  0  0  0  0  0  0  0  0
    4.3773   -0.4328    0.3333 C   0  0  0  0  0  0  0  0  0  0  0  0
    3.7830    1.2244    2.1495 C   0  0  0  0  0  0  0  0  0  0  0  0
    2.8017    1.9406   -0.5925 C   0  0  0  0  0  0  0  0  0  0  0  0
    0.9328    0.4601    0.2022 C   0  0  0  0  0  0  0  0  0  0  0  0
    4.2195   -1.7305   -0.1532 C   0  0  0  0  0  0  0  0  0  0  0  0
    5.5620    0.2629    0.0928 C   0  0  0  0  0  0  0  0  0  0  0  0
    5.2465   -2.3327   -0.8800 C   0  0  0  0  0  0  0  0  0  0  0  0
    6.5891   -0.3391   -0.6340 C   0  0  0  0  0  0  0  0  0  0  0  0
    6.4313   -1.6370   -1.1205 C   0  0  0  0  0  0  0  0  0  0  0  0
   -1.3679    1.4246   -0.1892 C   0  0  0  0  0  0  0  0  0  0  0  0
   -3.4507    0.7378   -0.1949 C   0  0  0  0  0  0  0  0  0  0  0  0
   -4.5195   -0.2098   -0.0636 C   0  0  0  0  0  0  0  0  0  0  0  0
   -3.6684    2.0631   -0.5085 C   0  0  0  0  0  0  0  0  0  0  0  0
   -5.6854   -0.0539   -0.8050 C   0  0  0  0  0  0  0  0  0  0  0  0
   -4.3937   -1.2879    0.8054 C   0  0  0  0  0  0  0  0  0  0  0  0
   -6.6882   -0.9962   -0.6423 C   0  0  0  0  0  0  0  0  0  0  0  0
   -5.4542   -2.1750    0.8961 C   0  0  0  0  0  0  0  0  0  0  0  0
    2.7489   -0.5646    1.6918 H   0  0  0  0  0  0  0  0  0  0  0  0
    4.2475    2.1158    1.7177 H   0  0  0  0  0  0  0  0  0  0  0  0
    2.9524    1.5837    2.7694 H   0  0  0  0  0  0  0  0  0  0  0  0
    4.5120    0.7581    2.8223 H   0  0  0  0  0  0  0  0  0  0  0  0
    2.9635    2.8316    0.0195 H   0  0  0  0  0  0  0  0  0  0  0  0
    2.0886    2.1930   -1.3831 H   0  0  0  0  0  0  0  0  0  0  0  0
    3.7226    1.6586   -1.1027 H   0  0  0  0  0  0  0  0  0  0  0  0
    3.3006   -2.2824    0.0261 H   0  0  0  0  0  0  0  0  0  0  0  0
    5.7265    1.2774    0.4389 H   0  0  0  0  0  0  0  0  0  0  0  0
    0.4103    2.4336   -0.2295 H   0  0  0  0  0  0  0  0  0  0  0  0
    5.1234   -3.3429   -1.2593 H   0  0  0  0  0  0  0  0  0  0  0  0
    7.5107    0.2031   -0.8243 H   0  0  0  0  0  0  0  0  0  0  0  0
    7.2307   -2.1054   -1.6872 H   0  0  0  0  0  0  0  0  0  0  0  0
   -4.5935    2.5939   -0.6860 H   0  0  0  0  0  0  0  0  0  0  0  0
   -5.8353    0.7565   -1.5105 H   0  0  0  0  0  0  0  0  0  0  0  0
   -3.5046   -1.4476    1.4070 H   0  0  0  0  0  0  0  0  0  0  0  0
   -7.6159   -0.9225   -1.2003 H   0  0  0  0  0  0  0  0  0  0  0  0
   -5.4065   -3.0318    1.5601 H   0  0  0  0  0  0  0  0  0  0  0  0
  1 17  1  0  0  0  0
  1 20  1  0  0  0  0
  2 11  2  0  0  0  0
  3  7  1  0  0  0  0
  3 10  1  0  0  0  0
  3 11  1  0  0  0  0
  4 11  1  0  0  0  0
  4 17  1  0  0  0  0
  4 34  1  0  0  0  0
  5 17  2  0  0  0  0
  5 18  1  0  0  0  0
  6 23  2  0  0  0  0
  6 24  1  0  0  0  0
  7  8  1  0  0  0  0
  7  9  1  0  0  0  0
  7 25  1  0  0  0  0
  8 12  2  0  0  0  0
  8 13  1  0  0  0  0
  9 26  1  0  0  0  0
  9 27  1  0  0  0  0
  9 28  1  0  0  0  0
 10 29  1  0  0  0  0
 10 30  1  0  0  0  0
 10 31  1  0  0  0  0
 12 14  1  0  0  0  0
 12 32  1  0  0  0  0
 13 15  2  0  0  0  0
 13 33  1  0  0  0  0
 14 16  2  0  0  0  0
 14 35  1  0  0  0  0
 15 16  1  0  0  0  0
 15 36  1  0  0  0  0
 16 37  1  0  0  0  0
 18 19  1  0  0  0  0
 18 20  2  0  0  0  0
 19 21  2  0  0  0  0
 19 22  1  0  0  0  0
 20 38  1  0  0  0  0
 21 23  1  0  0  0  0
 21 39  1  0  0  0  0
 22 24  2  0  0  0  0
 22 40  1  0  0  0  0
 23 41  1  0  0  0  0
 24 42  1  0  0  0  0
M  END
> <PUBCHEM_COMPOUND_CID>
89421450

> <PUBCHEM_CONFORMER_RMSD>
0.8

> <PUBCHEM_CONFORMER_DIVERSEORDER>
2
54
46
27
9
69
15
51
16
52
42
65
66
30
59
14
4
36
62
50
28
22
56
53
68
39
1
49
57
55
10
35
40
47
58
5
12
43
67
8
17
11
44
63
37
6
38
18
64
24
23
60
45
26
13
29
7
48
3
33
31
32
21
25
41
61
19
34
20

> <PUBCHEM_MMFF94_PARTIAL_CHARGES>
34
1 -0.08
10 0.3
11 0.69
12 -0.15
13 -0.15
14 -0.15
15 -0.15
16 -0.15
17 0.44
18 0.17
19 0.05
2 -0.57
20 -0.11
21 -0.15
22 -0.15
23 0.16
24 0.16
3 -0.66
32 0.15
33 0.15
34 0.37
35 0.15
36 0.15
37 0.15
38 0.15
39 0.15
4 -0.49
40 0.15
41 0.15
42 0.15
5 -0.57
6 -0.62
7 0.44
8 -0.14

> <PUBCHEM_EFFECTIVE_ROTOR_COUNT>
6

> <PUBCHEM_PHARMACOPHORE_FEATURES>
6
1 2 acceptor
1 4 donor
1 6 acceptor
5 1 5 17 18 20 rings
6 6 19 21 22 23 24 rings
6 8 12 13 14 15 16 rings

> <PUBCHEM_HEAVY_ATOM_COUNT>
24

> <PUBCHEM_ATOM_DEF_STEREO_COUNT>
1

> <PUBCHEM_ATOM_UDEF_STEREO_COUNT>
0

> <PUBCHEM_BOND_DEF_STEREO_COUNT>
0

> <PUBCHEM_BOND_UDEF_STEREO_COUNT>
0

> <PUBCHEM_ISOTOPIC_ATOM_COUNT>
0

> <PUBCHEM_COMPONENT_COUNT>
1

> <PUBCHEM_CACTVS_TAUTO_COUNT>
3

> <PUBCHEM_CONFORMER_ID>
0554768A00000002

> <PUBCHEM_MMFF94_ENERGY>
68.2082

> <PUBCHEM_FEATURE_SELFOVERLAP>
30.447

> <PUBCHEM_SHAPE_FINGERPRINT>
10076449 9 17988933267229059254
10366900 7 17095523976339082760
11056379 131 18261389984596275501
11069576 57 15503196905172979008
11089746 13 8430312416244466992
11524674 6 16774076280782176031
11545043 162 18201433636570526560
117089 54 17842286865552757646
11963148 33 18408878564029459791
12166972 35 18131351925178664736
12596602 18 16486968544509422435
12616971 3 15195277638305327768
12633257 1 15554157138505633556
12730499 353 18131063862539312144
12760667 363 18412546522767014697
13073987 5 17775283829519667080
13402501 40 18412830183086234670
13533116 47 17846778537859605120
13668630 136 18334295387829402207
13673619 4 18202848738511487376
13685833 64 18201720643913091218
13782708 43 18130784551181788942
13955234 65 17846205718499099624
14123256 34 18334581274001224627
14251740 57 18410574019828181332
14251764 30 18059855086396933409
14461889 52 18410567419095931154
14556957 393 15647059218132365703
14931854 50 17676758830428091803
14950920 106 16630243701390703731
15131766 46 16126093508072715689
15183329 4 18114180817522044707
15250474 111 17823969052687106699
15348495 7 10087341332106231782
15352257 5 18341335513221095454
15510800 12 18188778383180809795
17844677 252 17917992767555875992
18222031 100 17749103391925043604
18335252 98 18341896316439474232
18608769 82 18412261770424763314
18681886 176 18260264183462962152
18927931 339 18260552221470986699
20281389 69 10087643701945700559
21033650 10 16732976493423768461
21049683 271 18272936038474096440
21054139 6 17749389252616933426
21150785 3 17749112201382502612
21267235 1 18334298691149564377
21623969 137 17775569710895498558
21682296 61 18130511842365360791
21774942 28 12540958691287590590
221357 26 18411135831688726136
2297311 6 18409167701622439053
2303208 19 18202282485553979580
23522609 53 18126318343709340600
23559900 14 18261107500117529797
25122255 55 18410298016724058927
2838139 119 8718827561560155443
300161 21 9079118851743826821
3004659 81 17822006549359792381
3089732 80 18412829083527043143
335352 9 18260541226866574765
4073 2 18339364058754675696
439807 62 18337674118326497166
46194498 28 18408885149036465260
465052 167 17632578215603457204
497634 4 18187645756669022277
504843 32 12973900216329040145
5104073 3 18272363127414862656
59755656 215 18333447638399878619
59755656 520 18051693248840444761
8863177 126 18273210924073766574

> <PUBCHEM_SHAPE_MULTIPOLES>
471.96
19.52
2.65
1.14
2.11
0.29
-0.4
-13.09
3.02
1.48
0.35
-0.99
0.05
2.33

> <PUBCHEM_SHAPE_SELFOVERLAP>
1001.186

> <PUBCHEM_SHAPE_VOLUME>
265.5

> <PUBCHEM_COORDINATE_TYPE>
2
5
10

$$$$
88898804
  -OEChem-05102415103D

 42 44  0     1  0  0  0  0  0999 V2000
   -1.9455   -2.9220    1.1105 S   0  0  0  0  0  0  0  0  0  0  0  0
    1.0528    0.0578   -0.8107 O   0  0  0  0  0  0  0  0  0  0  0  0
    2.6026   -1.6096   -0.3897 N   0  0  0  0  0  0  0  0  0  0  0  0
    0.3436   -1.9086    0.2108 N   0  0  0  0  0  0  0  0  0  0  0  0
   -1.7152   -0.5910    0.0172 N   0  0  0  0  0  0  0  0  0  0  0  0
   -5.9349    2.2204   -0.4305 N   0  0  0  0  0  0  0  0  0  0  0  0
    3.7349   -0.8868   -0.9652 C   0  0  2  0  0  0  0  0  0  0  0  0
    4.0036    0.4009   -0.2164 C   0  0  0  0  0  0  0  0  0  0  0  0
    3.5245   -0.6595   -2.4608 C   0  0  0  0  0  0  0  0  0  0  0  0
    2.9015   -2.9315    0.1464 C   0  0  0  0  0  0  0  0  0  0  0  0
    1.2994   -1.0613   -0.3554 C   0  0  0  0  0  0  0  0  0  0  0  0
    4.7989    0.3887    0.9294 C   0  0  0  0  0  0  0  0  0  0  0  0
    3.4554    1.5997   -0.6722 C   0  0  0  0  0  0  0  0  0  0  0  0
    5.0463    1.5756    1.6194 C   0  0  0  0  0  0  0  0  0  0  0  0
    3.7027    2.7865    0.0177 C   0  0  0  0  0  0  0  0  0  0  0  0
    4.4981    2.7744    1.1635 C   0  0  0  0  0  0  0  0  0  0  0  0
   -1.0431   -1.6644    0.3696 C   0  0  0  0  0  0  0  0  0  0  0  0
   -3.0434   -0.7654    0.3537 C   0  0  0  0  0  0  0  0  0  0  0  0
   -4.0240    0.2472    0.0878 C   0  0  0  0  0  0  0  0  0  0  0  0
   -3.3603   -1.9654    0.9549 C   0  0  0  0  0  0  0  0  0  0  0  0
   -5.3439   -0.1089   -0.1663 C   0  0  0  0  0  0  0  0  0  0  0  0
   -3.6585    1.5888    0.0830 C   0  0  0  0  0  0  0  0  0  0  0  0
   -6.2527    0.9063   -0.4174 C   0  0  0  0  0  0  0  0  0  0  0  0
   -4.6428    2.5282   -0.1792 C   0  0  0  0  0  0  0  0  0  0  0  0
    4.6414   -1.5002   -0.8826 H   0  0  0  0  0  0  0  0  0  0  0  0
    2.5976   -0.1393   -2.7177 H   0  0  0  0  0  0  0  0  0  0  0  0
    4.3593   -0.1001   -2.8989 H   0  0  0  0  0  0  0  0  0  0  0  0
    3.4778   -1.6270   -2.9757 H   0  0  0  0  0  0  0  0  0  0  0  0
    2.3272   -3.6804   -0.4077 H   0  0  0  0  0  0  0  0  0  0  0  0
    2.6222   -2.9634    1.2041 H   0  0  0  0  0  0  0  0  0  0  0  0
    3.9631   -3.1791    0.0655 H   0  0  0  0  0  0  0  0  0  0  0  0
    5.2299   -0.5392    1.2957 H   0  0  0  0  0  0  0  0  0  0  0  0
    2.8410    1.6663   -1.5632 H   0  0  0  0  0  0  0  0  0  0  0  0
    0.6198   -2.8179    0.5638 H   0  0  0  0  0  0  0  0  0  0  0  0
    5.6653    1.5662    2.5118 H   0  0  0  0  0  0  0  0  0  0  0  0
    3.2784    3.7208   -0.3382 H   0  0  0  0  0  0  0  0  0  0  0  0
    4.6909    3.6986    1.7004 H   0  0  0  0  0  0  0  0  0  0  0  0
   -4.3101   -2.3332    1.3177 H   0  0  0  0  0  0  0  0  0  0  0  0
   -5.6855   -1.1383   -0.1924 H   0  0  0  0  0  0  0  0  0  0  0  0
   -2.6420    1.9140    0.2801 H   0  0  0  0  0  0  0  0  0  0  0  0
   -7.2937    0.6815   -0.6254 H   0  0  0  0  0  0  0  0  0  0  0  0
   -4.4097    3.5878   -0.1933 H   0  0  0  0  0  0  0  0  0  0  0  0
  1 17  1  0  0  0  0
  1 20  1  0  0  0  0
  2 11  2  0  0  0  0
  3  7  1  0  0  0  0
  3 10  1  0  0  0  0
  3 11  1  0  0  0  0
  4 11  1  0  0  0  0
  4 17  1  0  0  0  0
  4 34  1  0  0  0  0
  5 17  2  0  0  0  0
  5 18  1  0  0  0  0
  6 23  2  0  0  0  0
  6 24  1  0  0  0  0
  7  8  1  0  0  0  0
  7  9  1  0  0  0  0
  7 25  1  0  0  0  0
  8 12  2  0  0  0  0
  8 13  1  0  0  0  0
  9 26  1  0  0  0  0
  9 27  1  0  0  0  0
  9 28  1  0  0  0  0
 10 29  1  0  0  0  0
 10 30  1  0  0  0  0
 10 31  1  0  0  0  0
 12 14  1  0  0  0  0
 12 32  1  0  0  0  0
 13 15  2  0  0  0  0
 13 33  1  0  0  0  0
 14 16  2  0  0  0  0
 14 35  1  0  0  0  0
 15 16  1  0  0  0  0
 15 36  1  0  0  0  0
 16 37  1  0  0  0  0
 18 19  1  0  0  0  0
 18 20  2  0  0  0  0
 19 21  2  0  0  0  0
 19 22  1  0  0  0  0
 20 38  1  0  0  0  0
 21 23  1  0  0  0  0
 21 39  1  0  0  0  0
 22 24  2  0  0  0  0
 22 40  1  0  0  0  0
 23 41  1  0  0  0  0
 24 42  1  0  0  0  0
M  END
> <PUBCHEM_COMPOUND_CID>
88898804

> <PUBCHEM_CONFORMER_RMSD>
0.8

> <PUBCHEM_CONFORMER_DIVERSEORDER>
2
32
57
56
12
14
28
10
54
41
59
49
17
9
26
53
24
52
50
22
44
31
42
25
34
21
58
30
47
15
6
48
45
39
51
16
60
55
27
46
36
18
19
7
11
5
4
3
20
43
13
38
29
1
33
35
8
37
23
40

> <PUBCHEM_MMFF94_PARTIAL_CHARGES>
34
1 -0.08
10 0.3
11 0.69
12 -0.15
13 -0.15
14 -0.15
15 -0.15
16 -0.15
17 0.44
18 0.17
19 0.05
2 -0.57
20 -0.11
21 -0.15
22 -0.15
23 0.16
24 0.16
3 -0.66
32 0.15
33 0.15
34 0.37
35 0.15
36 0.15
37 0.15
38 0.15
39 0.15
4 -0.49
40 0.15
41 0.15
42 0.15
5 -0.57
6 -0.62
7 0.44
8 -0.14

> <PUBCHEM_EFFECTIVE_ROTOR_COUNT>
6

> <PUBCHEM_PHARMACOPHORE_FEATURES>
6
1 2 acceptor
1 4 donor
1 6 acceptor
5 1 5 17 18 20 rings
6 6 19 21 22 23 24 rings
6 8 12 13 14 15 16 rings

> <PUBCHEM_HEAVY_ATOM_COUNT>
24

> <PUBCHEM_ATOM_DEF_STEREO_COUNT>
1

> <PUBCHEM_ATOM_UDEF_STEREO_COUNT>
0

> <PUBCHEM_BOND_DEF_STEREO_COUNT>
0

> <PUBCHEM_BOND_UDEF_STEREO_COUNT>
0

> <PUBCHEM_ISOTOPIC_ATOM_COUNT>
0

> <PUBCHEM_COMPONENT_COUNT>
1

> <PUBCHEM_CACTVS_TAUTO_COUNT>
3

> <PUBCHEM_CONFORMER_ID>
054C7CF400000002

> <PUBCHEM_MMFF94_ENERGY>
67.1388

> <PUBCHEM_FEATURE_SELFOVERLAP>
30.447

> <PUBCHEM_SHAPE_FINGERPRINT>
10319926 262 18334008437154550482
11089746 13 18412824659916222950
11595378 159 16153422822625412108
12107183 9 18188193335313922842
12403259 118 18192423289542061664
12403259 415 18340219582012292642
12422481 6 16805592630155712151
12596602 18 14996583805570932853
12633257 1 16443346515482528886
12769317 202 17917429890996375696
13402501 40 18341326764336108705
13561361 72 18187358805361492004
14178342 30 18042126629731130074
14216079 64 9367343735376230553
14223995 32 18044926870814056325
14251764 38 18263926712012804573
14739800 52 18335125480289897467
14848178 96 18413394241246317352
14950920 106 14057006009811031093
15238133 3 18113340834378984500
20157964 124 18272087188777304031
20715895 44 18411132528606012440
21033648 29 18334584559076056723
21049683 118 17676762098718421595
21315763 129 18338233881250284338
21315764 268 18262511503404068829
21388113 180 18199465652723129208
21452121 103 18410569579053329186
21475661 188 18339920515282060800
21859007 373 17170093873221408605
21968339 14 17346595275409963136
23559900 14 18340772542183364138
2838139 119 18339073775543690229
2916195 48 18411133645708543587
328310 1195 17989486337787515688
341906 21 18188777261460160630
3459 39 18041541582207575701
34797466 226 17775288249051310687
3680242 22 18261391096459828217
376196 1 18337110069014714835
4371632 12 15838996753835302337
44317340 157 18060425707420674359
465052 167 11386360422768513384
495365 180 18201998815949603838
508706 21 18334858350651875181
5104073 3 18187651263201951499
5223283 242 16767351461560995421
6371380 46 18261958440729743594
7064713 232 18113621200631718879
7237137 82 16486400127210119119
9981440 41 18187366532777368931

> <PUBCHEM_SHAPE_MULTIPOLES>
471.96
14.85
3.55
1.3
10.12
0.06
0.34
10.71
-0.44
-0.3
-0.87
-1.88
-0.1
2.54

> <PUBCHEM_SHAPE_SELFOVERLAP>
1002.742

> <PUBCHEM_SHAPE_VOLUME>
264.8

> <PUBCHEM_COORDINATE_TYPE>
2
5
10

$$$$
87405570
  -OEChem-05102415103D

 40 42  0     1  0  0  0  0  0999 V2000
    2.0004    2.6158   -1.3939 S   0  0  0  0  0  0  0  0  0  0  0  0
   -4.9749    2.3151    0.5890 O   0  0  0  0  0  0  0  0  0  0  0  0
   -0.6660   -0.3082    1.1091 O   0  0  0  0  0  0  0  0  0  0  0  0
   -2.2857    1.2095    0.4677 N   0  0  0  0  0  0  0  0  0  0  0  0
   -0.1354    1.5483   -0.2259 N   0  0  0  0  0  0  0  0  0  0  0  0
    2.0409    0.4506    0.0179 N   0  0  0  0  0  0  0  0  0  0  0  0
    6.5193   -1.9029    0.5803 N   0  0  0  0  0  0  0  0  0  0  0  0
   -3.3971    0.5545    1.1413 C   0  0  2  0  0  0  0  0  0  0  0  0
   -4.0613   -0.4531    0.2650 C   0  0  0  0  0  0  0  0  0  0  0  0
   -4.3618    1.6289    1.6756 C   0  0  0  0  0  0  0  0  0  0  0  0
   -4.1408   -0.2363   -1.1106 C   0  0  0  0  0  0  0  0  0  0  0  0
   -4.6029   -1.6122    0.8208 C   0  0  0  0  0  0  0  0  0  0  0  0
   -0.9843    0.7147    0.5073 C   0  0  0  0  0  0  0  0  0  0  0  0
   -4.7619   -1.1785   -1.9304 C   0  0  0  0  0  0  0  0  0  0  0  0
   -5.2239   -2.5546    0.0010 C   0  0  0  0  0  0  0  0  0  0  0  0
   -5.3034   -2.3377   -1.3746 C   0  0  0  0  0  0  0  0  0  0  0  0
    1.2559    1.4027   -0.4352 C   0  0  0  0  0  0  0  0  0  0  0  0
    3.3293    0.6883   -0.4198 C   0  0  0  0  0  0  0  0  0  0  0  0
    4.4111   -0.1905   -0.0806 C   0  0  0  0  0  0  0  0  0  0  0  0
    3.5037    1.8143   -1.1968 C   0  0  0  0  0  0  0  0  0  0  0  0
    5.7037    0.3079    0.0400 C   0  0  0  0  0  0  0  0  0  0  0  0
    4.1715   -1.5440    0.1290 C   0  0  0  0  0  0  0  0  0  0  0  0
    6.7136   -0.5818    0.3693 C   0  0  0  0  0  0  0  0  0  0  0  0
    5.2499   -2.3508    0.4544 C   0  0  0  0  0  0  0  0  0  0  0  0
   -2.9719    0.0357    2.0106 H   0  0  0  0  0  0  0  0  0  0  0  0
   -5.1540    1.1714    2.2780 H   0  0  0  0  0  0  0  0  0  0  0  0
   -3.8284    2.3615    2.2908 H   0  0  0  0  0  0  0  0  0  0  0  0
   -2.4778    2.0281   -0.1021 H   0  0  0  0  0  0  0  0  0  0  0  0
   -3.7416    0.6616   -1.5737 H   0  0  0  0  0  0  0  0  0  0  0  0
   -4.5497   -1.7926    1.8912 H   0  0  0  0  0  0  0  0  0  0  0  0
   -4.8268   -1.0085   -3.0012 H   0  0  0  0  0  0  0  0  0  0  0  0
   -5.6462   -3.4568    0.4337 H   0  0  0  0  0  0  0  0  0  0  0  0
   -5.7877   -3.0709   -2.0129 H   0  0  0  0  0  0  0  0  0  0  0  0
   -0.5419    2.3656   -0.6726 H   0  0  0  0  0  0  0  0  0  0  0  0
   -5.5746    2.9774    0.9728 H   0  0  0  0  0  0  0  0  0  0  0  0
    4.3964    2.2067   -1.6640 H   0  0  0  0  0  0  0  0  0  0  0  0
    5.9498    1.3558   -0.0952 H   0  0  0  0  0  0  0  0  0  0  0  0
    3.1807   -1.9782    0.0417 H   0  0  0  0  0  0  0  0  0  0  0  0
    7.7385   -0.2430    0.4794 H   0  0  0  0  0  0  0  0  0  0  0  0
    5.1164   -3.4137    0.6269 H   0  0  0  0  0  0  0  0  0  0  0  0
  1 17  1  0  0  0  0
  1 20  1  0  0  0  0
  2 10  1  0  0  0  0
  2 35  1  0  0  0  0
  3 13  2  0  0  0  0
  4  8  1  0  0  0  0
  4 13  1  0  0  0  0
  4 28  1  0  0  0  0
  5 13  1  0  0  0  0
  5 17  1  0  0  0  0
  5 34  1  0  0  0  0
  6 17  2  0  0  0  0
  6 18  1  0  0  0  0
  7 23  2  0  0  0  0
  7 24  1  0  0  0  0
  8  9  1  0  0  0  0
  8 10  1  0  0  0  0
  8 25  1  0  0  0  0
  9 11  2  0  0  0  0
  9 12  1  0  0  0  0
 10 26  1  0  0  0  0
 10 27  1  0  0  0  0
 11 14  1  0  0  0  0
 11 29  1  0  0  0  0
 12 15  2  0  0  0  0
 12 30  1  0  0  0  0
 14 16  2  0  0  0  0
 14 31  1  0  0  0  0
 15 16  1  0  0  0  0
 15 32  1  0  0  0  0
 16 33  1  0  0  0  0
 18 19  1  0  0  0  0
 18 20  2  0  0  0  0
 19 21  2  0  0  0  0
 19 22  1  0  0  0  0
 20 36  1  0  0  0  0
 21 23  1  0  0  0  0
 21 37  1  0  0  0  0
 22 24  2  0  0  0  0
 22 38  1  0  0  0  0
 23 39  1  0  0  0  0
 24 40  1  0  0  0  0
M  END
> <PUBCHEM_COMPOUND_CID>
87405570

> <PUBCHEM_CONFORMER_RMSD>
0.8

> <PUBCHEM_CONFORMER_DIVERSEORDER>
1
27
37
126
112
61
121
87
98
79
45
50
127
130
18
82
113
56
31
30
99
52
105
77
128
92
109
83
42
34
25
129
72
86
120
51
23
106
88
58
36
117
84
54
103
17
118
21
110
100
40
67
122
111
89
13
71
123
69
43
74
48
28
124
125
78
65
116
44
55
97
119
91
14
11
63
96
53
10
102
62
94
107
57
85
76
104
80
64
90
46
15
75
16
49
60
20
93
68
81
35
108
5
38
19
66
47
39
41
22
101
9
26
29
24
2
6
95
12
7
73
32
8
59
114
4
33
3
70
115

> <PUBCHEM_MMFF94_PARTIAL_CHARGES>
37
1 -0.08
10 0.28
11 -0.15
12 -0.15
13 0.69
14 -0.15
15 -0.15
16 -0.15
17 0.44
18 0.17
19 0.05
2 -0.68
20 -0.11
21 -0.15
22 -0.15
23 0.16
24 0.16
28 0.37
29 0.15
3 -0.57
30 0.15
31 0.15
32 0.15
33 0.15
34 0.37
35 0.4
36 0.15
37 0.15
38 0.15
39 0.15
4 -0.73
40 0.15
5 -0.49
6 -0.57
7 -0.62
8 0.44
9 -0.14

> <PUBCHEM_EFFECTIVE_ROTOR_COUNT>
7

> <PUBCHEM_PHARMACOPHORE_FEATURES>
9
1 2 acceptor
1 2 donor
1 3 acceptor
1 4 donor
1 5 donor
1 7 acceptor
5 1 6 17 18 20 rings
6 7 19 21 22 23 24 rings
6 9 11 12 14 15 16 rings

> <PUBCHEM_HEAVY_ATOM_COUNT>
24

> <PUBCHEM_ATOM_DEF_STEREO_COUNT>
0

> <PUBCHEM_ATOM_UDEF_STEREO_COUNT>
1

> <PUBCHEM_BOND_DEF_STEREO_COUNT>
0

> <PUBCHEM_BOND_UDEF_STEREO_COUNT>
0

> <PUBCHEM_ISOTOPIC_ATOM_COUNT>
0

> <PUBCHEM_COMPONENT_COUNT>
1

> <PUBCHEM_CACTVS_TAUTO_COUNT>
5

> <PUBCHEM_CONFORMER_ID>
0535B40200000001

> <PUBCHEM_MMFF94_ENERGY>
55.1291

> <PUBCHEM_FEATURE_SELFOVERLAP>
45.728

> <PUBCHEM_SHAPE_FINGERPRINT>
105312 117 14562528492219543347
10595046 47 18339086002582897813
11545043 162 17632573851151897561
11796584 16 18131074783812918408
11809386 21 18272088323186915563
12107183 9 18264779761559202521
12236239 1 18342739615829822176
12342043 65 16300388048299935185
12422481 6 17560520595337270878
12555020 224 17894912953136254923
12596602 18 17847059978724490890
12616971 3 18334308560372935761
12839892 36 17846502521327690823
13073987 5 18340210794514707401
13533116 47 18339642360299297720
13583140 156 16702015344816475233
14211702 104 18341339954365316950
14251751 18 17989204862720933058
14347332 77 18341895242681903983
1454969 45 18261116297127976012
14848178 5 18410848884533472031
15183329 4 16733254694970189146
15188451 53 18060694009426544815
15250474 111 18340491161315989671
15728490 51 18271240630097842942
17349148 13 18342748441465376103
17857418 61 18412544322973684366
18222031 100 18186794778051085432
20028762 73 18413105048804817038
20567600 247 18410005572248075334
20621476 91 16200147742185073567
20645477 70 17895197752865928224
21033648 29 15051465881500934505
21315763 178 18410014299858497730
21728266 224 18131633396012953057
220451 1 18340218418308335576
22061861 79 17603584153227831270
22393880 68 17168415073579497979
23081809 10 18408611370340338420
23402539 116 18408325466719576152
23522609 53 18120125881774634740
23559900 14 17968659448816893944
24771293 8 18334857239031182288
314194 84 18261119560691230080
34797466 226 15502948548435730029
397830 11 17131538536121241698
4015057 19 18041006197032669520
439807 62 18266175218473148279
5085150 59 17846774092853693455
5104073 3 17988931097369106057
531348 171 18188203213707002589
559249 180 18412826855271992121
60123966 16 16443623635794685164
6431902 208 18409729568864547059
7495541 125 17632855352257354952
96874 4 18270671069214619367

> <PUBCHEM_SHAPE_MULTIPOLES>
466.1
17.98
2.87
1.39
8.89
0.21
0.28
11.05
-0.39
-0.53
0.33
-1.97
-0.21
-3.23

> <PUBCHEM_SHAPE_SELFOVERLAP>
990.978

> <PUBCHEM_SHAPE_VOLUME>
260.4

> <PUBCHEM_COORDINATE_TYPE>
2
5
10

$$$$
87405115
  -OEChem-05102415103D

 39 41  0     1  0  0  0  0  0999 V2000
   -1.9792    2.7679    0.3313 S   0  0  0  0  0  0  0  0  0  0  0  0
    6.9824    1.7885   -0.2682 F   0  0  0  0  0  0  0  0  0  0  0  0
    0.1585   -1.3078   -0.5305 O   0  0  0  0  0  0  0  0  0  0  0  0
    2.0108    0.0727   -0.4748 N   0  0  0  0  0  0  0  0  0  0  0  0
   -0.0532    0.9963   -0.1344 N   0  0  0  0  0  0  0  0  0  0  0  0
   -2.3822    0.2423   -0.0441 N   0  0  0  0  0  0  0  0  0  0  0  0
   -7.1904   -1.4198    0.1265 N   0  0  0  0  0  0  0  0  0  0  0  0
    2.9948   -0.9646   -0.7347 C   0  0  2  0  0  0  0  0  0  0  0  0
    4.3060   -0.6697   -0.0891 C   0  0  0  0  0  0  0  0  0  0  0  0
    3.1047   -1.2066   -2.2476 C   0  0  0  0  0  0  0  0  0  0  0  0
    5.0453    0.4439   -0.4881 C   0  0  0  0  0  0  0  0  0  0  0  0
    4.7939   -1.5079    0.9136 C   0  0  0  0  0  0  0  0  0  0  0  0
    0.6438   -0.1874   -0.3919 C   0  0  0  0  0  0  0  0  0  0  0  0
    6.2723    0.7194    0.1156 C   0  0  0  0  0  0  0  0  0  0  0  0
    6.0210   -1.2327    1.5170 C   0  0  0  0  0  0  0  0  0  0  0  0
    6.7601   -0.1188    1.1182 C   0  0  0  0  0  0  0  0  0  0  0  0
   -1.4488    1.1656    0.0213 C   0  0  0  0  0  0  0  0  0  0  0  0
   -3.6121    0.8351    0.1651 C   0  0  0  0  0  0  0  0  0  0  0  0
   -4.8255    0.0704    0.1520 C   0  0  0  0  0  0  0  0  0  0  0  0
   -3.5952    2.1963    0.3859 C   0  0  0  0  0  0  0  0  0  0  0  0
   -6.0178    0.6600   -0.2538 C   0  0  0  0  0  0  0  0  0  0  0  0
   -4.8144   -1.2634    0.5448 C   0  0  0  0  0  0  0  0  0  0  0  0
   -7.1622   -0.1211   -0.2485 C   0  0  0  0  0  0  0  0  0  0  0  0
   -6.0127   -1.9586    0.5143 C   0  0  0  0  0  0  0  0  0  0  0  0
    2.5931   -1.8925   -0.3063 H   0  0  0  0  0  0  0  0  0  0  0  0
    2.1409   -1.5208   -2.6632 H   0  0  0  0  0  0  0  0  0  0  0  0
    3.8384   -1.9901   -2.4667 H   0  0  0  0  0  0  0  0  0  0  0  0
    3.4074   -0.3005   -2.7844 H   0  0  0  0  0  0  0  0  0  0  0  0
    2.3227    1.0361   -0.3968 H   0  0  0  0  0  0  0  0  0  0  0  0
    4.6815    1.1113   -1.2645 H   0  0  0  0  0  0  0  0  0  0  0  0
    4.2310   -2.3796    1.2367 H   0  0  0  0  0  0  0  0  0  0  0  0
    6.4011   -1.8852    2.2976 H   0  0  0  0  0  0  0  0  0  0  0  0
    0.4845    1.8538   -0.0428 H   0  0  0  0  0  0  0  0  0  0  0  0
    7.7155    0.0959    1.5879 H   0  0  0  0  0  0  0  0  0  0  0  0
   -4.4091    2.8799    0.5841 H   0  0  0  0  0  0  0  0  0  0  0  0
   -6.0862    1.6903   -0.5866 H   0  0  0  0  0  0  0  0  0  0  0  0
   -3.9092   -1.7641    0.8730 H   0  0  0  0  0  0  0  0  0  0  0  0
   -8.1169    0.2898   -0.5598 H   0  0  0  0  0  0  0  0  0  0  0  0
   -6.0579   -3.0010    0.8120 H   0  0  0  0  0  0  0  0  0  0  0  0
  1 17  1  0  0  0  0
  1 20  1  0  0  0  0
  2 14  1  0  0  0  0
  3 13  2  0  0  0  0
  4  8  1  0  0  0  0
  4 13  1  0  0  0  0
  4 29  1  0  0  0  0
  5 13  1  0  0  0  0
  5 17  1  0  0  0  0
  5 33  1  0  0  0  0
  6 17  2  0  0  0  0
  6 18  1  0  0  0  0
  7 23  2  0  0  0  0
  7 24  1  0  0  0  0
  8  9  1  0  0  0  0
  8 10  1  0  0  0  0
  8 25  1  0  0  0  0
  9 11  2  0  0  0  0
  9 12  1  0  0  0  0
 10 26  1  0  0  0  0
 10 27  1  0  0  0  0
 10 28  1  0  0  0  0
 11 14  1  0  0  0  0
 11 30  1  0  0  0  0
 12 15  2  0  0  0  0
 12 31  1  0  0  0  0
 14 16  2  0  0  0  0
 15 16  1  0  0  0  0
 15 32  1  0  0  0  0
 16 34  1  0  0  0  0
 18 19  1  0  0  0  0
 18 20  2  0  0  0  0
 19 21  2  0  0  0  0
 19 22  1  0  0  0  0
 20 35  1  0  0  0  0
 21 23  1  0  0  0  0
 21 36  1  0  0  0  0
 22 24  2  0  0  0  0
 22 37  1  0  0  0  0
 23 38  1  0  0  0  0
 24 39  1  0  0  0  0
M  END
> <PUBCHEM_COMPOUND_CID>
87405115

> <PUBCHEM_CONFORMER_RMSD>
0.8

> <PUBCHEM_CONFORMER_DIVERSEORDER>
1
58
108
155
119
56
49
128
114
65
81
117
120
2
124
98
156
71
175
166
12
77
109
27
162
176
57
85
86
136
100
31
105
46
157
131
110
125
150
47
138
101
26
16
11
8
127
142
122
116
48
95
172
115
64
126
169
66
113
43
133
103
152
154
147
21
20
111
3
18
34
73
140
167
79
141
93
35
143
74
24
174
51
96
134
139
59
149
67
33
84
36
173
145
29
121
10
9
158
135
50
112
146
171
90
38
164
45
30
7
170
148
28
132
130
163
78
23
54
75
160
89
61
42
118
91
15
92
159
88
144
153
102
87
76
32
68
123
129
99
83
80
4
151
70
19
168
40
82
14
161
94
107
52
55
37
72
39
17
25
13
62
22
137
41
104
44
106
5
63
97
6
165
60
69
53

> <PUBCHEM_MMFF94_PARTIAL_CHARGES>
34
1 -0.08
11 -0.15
12 -0.15
13 0.69
14 0.19
15 -0.15
16 -0.15
17 0.44
18 0.17
19 0.05
2 -0.19
20 -0.11
21 -0.15
22 -0.15
23 0.16
24 0.16
29 0.37
3 -0.57
30 0.15
31 0.15
32 0.15
33 0.37
34 0.15
35 0.15
36 0.15
37 0.15
38 0.15
39 0.15
4 -0.73
5 -0.49
6 -0.57
7 -0.62
8 0.44
9 -0.14

> <PUBCHEM_EFFECTIVE_ROTOR_COUNT>
6

> <PUBCHEM_PHARMACOPHORE_FEATURES>
7
1 3 acceptor
1 4 donor
1 5 donor
1 7 acceptor
5 1 6 17 18 20 rings
6 7 19 21 22 23 24 rings
6 9 11 12 14 15 16 rings

> <PUBCHEM_HEAVY_ATOM_COUNT>
24

> <PUBCHEM_ATOM_DEF_STEREO_COUNT>
0

> <PUBCHEM_ATOM_UDEF_STEREO_COUNT>
1

> <PUBCHEM_BOND_DEF_STEREO_COUNT>
0

> <PUBCHEM_BOND_UDEF_STEREO_COUNT>
0

> <PUBCHEM_ISOTOPIC_ATOM_COUNT>
0

> <PUBCHEM_COMPONENT_COUNT>
1

> <PUBCHEM_CACTVS_TAUTO_COUNT>
5

> <PUBCHEM_CONFORMER_ID>
0535B23B00000001

> <PUBCHEM_MMFF94_ENERGY>
52.313

> <PUBCHEM_FEATURE_SELFOVERLAP>
35.576

> <PUBCHEM_SHAPE_FINGERPRINT>
10 15 18201715172119494450
10595046 47 18334295336453325200
10638233 991 13254789140229958834
106641 1 18410568505648849144
10939801 23 18338799034812260646
11315181 36 18341897403319596353
11408170 108 15936678260917667904
11646440 116 16845569816838765184
11719270 70 18411980247797412654
11724838 91 18335420188746752636
11796584 16 7925621229431163744
12166972 35 17603588534168658028
12236239 1 17894348865063751643
12516196 113 18202566172644641009
12596602 18 18187361009053345208
12730499 353 17060341795479825614
12838862 33 18341880880580408575
13073987 5 18270117907606956234
13533116 47 17676766475406276578
13668630 136 16008751303335832363
13914758 101 16009023952376321621
13964095 4 8862942788295738298
14068700 686 17988087664628835333
14251732 16 18410575102191315664
14251764 18 18408321111722730862
14461889 52 18273496762726758918
15183329 4 11746934261406572478
15188451 53 17967527948430498282
15716309 27 18412260636204990711
15840311 113 18187650250397180820
15927050 60 17481139424808729580
1768 4 16773500171275397336
17834072 8 11891335343801222823
17857418 61 18040718052060938003
19377110 9 18411987931530237432
20511986 3 17676758804119944899
21223535 225 14201664326925148231
21365058 27 15410618098854344813
21623969 137 17775287144611849110
21859007 373 11747210320609391054
22061861 79 14273743940442432083
22149856 69 17774178833023293179
2215653 11 13118003284111907648
22224240 67 16774075181170126071
23081809 10 17386017130261662524
23198884 109 15430038760615480423
23559900 14 18335978770761047705
29717793 49 15574717980343792926
32027 91 17763182436413470478
34797466 226 17489875955640890044
3663271 9 18336546032317847920
4280585 95 18259983791155561861
4325135 7 18342176674329218172
5104073 3 17844815775985590355
5283156 175 17894349960881610507
54076057 127 15482676771498886358
59682541 35 18059570329901925298
67856867 119 18261398900505374565
8988823 20 16515687758546938204
9689198 14 13542467583251302707

> <PUBCHEM_SHAPE_MULTIPOLES>
464.69
22.22
2.14
1.12
1.06
0.85
-0.28
-4.7
4.33
-1.72
0.26
1.81
-0.47
-0.11

> <PUBCHEM_SHAPE_SELFOVERLAP>
990.755

> <PUBCHEM_SHAPE_VOLUME>
260.4

> <PUBCHEM_COORDINATE_TYPE>
2
5
10

$$$$
?482056
  -OEChem-05102415103D

 39 41  0     0  0  0  0  0  0999 V2000
   -1.4764   -2.6073   -0.8413 S   0  0  0  0  0  0  0  0  0  0  0  0
    0.3719    1.6503   -0.7455 O   0  0  0  0  0  0  0  0  0  0  0  0
    2.2519    0.4678   -1.3802 N   0  0  0  0  0  0  0  0  0  0  0  0
    0.2930   -0.6829   -1.0360 N   0  0  0  0  0  0  0  0  0  0  0  0
   -1.9558   -0.1075   -0.3900 N   0  0  0  0  0  0  0  0  0  0  0  0
   -6.6922    1.1649    0.9793 N   0  0  0  0  0  0  0  0  0  0  0  0
    3.8457    1.8728   -0.1218 C   0  0  0  0  0  0  0  0  0  0  0  0
    3.1396    1.5972   -1.4550 C   0  0  0  0  0  0  0  0  0  0  0  0
    4.6956    0.7407    0.3479 C   0  0  0  0  0  0  0  0  0  0  0  0
    4.1485   -0.2506    1.1627 C   0  0  0  0  0  0  0  0  0  0  0  0
    6.0372    0.6729   -0.0278 C   0  0  0  0  0  0  0  0  0  0  0  0
    0.8994    0.5759   -1.0221 C   0  0  0  0  0  0  0  0  0  0  0  0
    4.9432   -1.3095    1.6019 C   0  0  0  0  0  0  0  0  0  0  0  0
    6.8317   -0.3862    0.4113 C   0  0  0  0  0  0  0  0  0  0  0  0
   -3.1313   -0.8026   -0.1826 C   0  0  0  0  0  0  0  0  0  0  0  0
   -4.3385   -0.1356    0.2118 C   0  0  0  0  0  0  0  0  0  0  0  0
   -1.0417   -0.9626   -0.7353 C   0  0  0  0  0  0  0  0  0  0  0  0
    6.2846   -1.3774    1.2263 C   0  0  0  0  0  0  0  0  0  0  0  0
   -3.0676   -2.1662   -0.3784 C   0  0  0  0  0  0  0  0  0  0  0  0
   -5.5756   -0.6470   -0.1671 C   0  0  0  0  0  0  0  0  0  0  0  0
   -4.2786    1.0261    0.9745 C   0  0  0  0  0  0  0  0  0  0  0  0
   -6.7118    0.0342    0.2385 C   0  0  0  0  0  0  0  0  0  0  0  0
   -5.4729    1.6327    1.3288 C   0  0  0  0  0  0  0  0  0  0  0  0
    4.4608    2.7760   -0.2248 H   0  0  0  0  0  0  0  0  0  0  0  0
    3.1005    2.1134    0.6481 H   0  0  0  0  0  0  0  0  0  0  0  0
    2.5709    2.4828   -1.7588 H   0  0  0  0  0  0  0  0  0  0  0  0
    3.8712    1.3801   -2.2410 H   0  0  0  0  0  0  0  0  0  0  0  0
    2.6251   -0.4524   -1.5920 H   0  0  0  0  0  0  0  0  0  0  0  0
    3.1055   -0.2100    1.4653 H   0  0  0  0  0  0  0  0  0  0  0  0
    6.4749    1.4377   -0.6641 H   0  0  0  0  0  0  0  0  0  0  0  0
    4.5173   -2.0812    2.2367 H   0  0  0  0  0  0  0  0  0  0  0  0
    7.8762   -0.4395    0.1184 H   0  0  0  0  0  0  0  0  0  0  0  0
    0.8597   -1.4884   -1.2854 H   0  0  0  0  0  0  0  0  0  0  0  0
    6.9033   -2.2020    1.5681 H   0  0  0  0  0  0  0  0  0  0  0  0
   -3.8336   -2.9218   -0.2709 H   0  0  0  0  0  0  0  0  0  0  0  0
   -5.6865   -1.5390   -0.7748 H   0  0  0  0  0  0  0  0  0  0  0  0
   -3.3375    1.4599    1.2971 H   0  0  0  0  0  0  0  0  0  0  0  0
   -7.7000   -0.3214   -0.0343 H   0  0  0  0  0  0  0  0  0  0  0  0
   -5.4800    2.5400    1.9239 H   0  0  0  0  0  0  0  0  0  0  0  0
  1 17  1  0  0  0  0
  1 19  1  0  0  0  0
  2 12  2  0  0  0  0
  3  8  1  0  0  0  0
  3 12  1  0  0  0  0
  3 28  1  0  0  0  0
  4 12  1  0  0  0  0
  4 17  1  0  0  0  0
  4 33  1  0  0  0  0
  5 15  1  0  0  0  0
  5 17  2  0  0  0  0
  6 22  2  0  0  0  0
  6 23  1  0  0  0  0
  7  8  1  0  0  0  0
  7  9  1  0  0  0  0
  7 24  1  0  0  0  0
  7 25  1  0  0  0  0
  8 26  1  0  0  0  0
  8 27  1  0  0  0  0
  9 10  2  0  0  0  0
  9 11  1  0  0  0  0
 10 13  1  0  0  0  0
 10 29  1  0  0  0  0
 11 14  2  0  0  0  0
 11 30  1  0  0  0  0
 13 18  2  0  0  0  0
 13 31  1  0  0  0  0
 14 18  1  0  0  0  0
 14 32  1  0  0  0  0
 15 16  1  0  0  0  0
 15 19  2  0  0  0  0
 16 20  2  0  0  0  0
 16 21  1  0  0  0  0
 18 34  1  0  0  0  0
 19 35  1  0  0  0  0
 20 22  1  0  0  0  0
 20 36  1  0  0  0  0
 21 23  2  0  0  0  0
 21 37  1  0  0  0  0
 22 38  1  0  0  0  0
 23 39  1  0  0  0  0
M  END
> <PUBCHEM_COMPOUND_CID>
482056

> <PUBCHEM_CONFORMER_RMSD>
0.8

> <PUBCHEM_CONFORMER_DIVERSEORDER>
1
15
42
78
16
52
50
48
37
70
47
44
83
4
24
34
45
81
61
21
80
20
57
60
75
14
72
41
23
76
11
9
51
67
26
58
69
43
84
30
12
6
64
71
74
7
46
56
38
85
19
66
40
17
73
3
31
29
77
65
13
39
82
55
18
54
79
49
2
35
33
27
32
62
5
36
10
59
22
8
68
63
25
53
28

> <PUBCHEM_MMFF94_PARTIAL_CHARGES>
35
1 -0.08
10 -0.15
11 -0.15
12 0.69
13 -0.15
14 -0.15
15 0.17
16 0.05
17 0.44
18 -0.15
19 -0.11
2 -0.57
20 -0.15
21 -0.15
22 0.16
23 0.16
28 0.37
29 0.15
3 -0.73
30 0.15
31 0.15
32 0.15
33 0.37
34 0.15
35 0.15
36 0.15
37 0.15
38 0.15
39 0.15
4 -0.49
5 -0.57
6 -0.62
7 0.14
8 0.3
9 -0.14

> <PUBCHEM_EFFECTIVE_ROTOR_COUNT>
7

> <PUBCHEM_PHARMACOPHORE_FEATURES>
7
1 2 acceptor
1 3 donor
1 4 donor
1 6 acceptor
5 1 5 15 17 19 rings
6 6 16 20 21 22 23 rings
6 9 10 11 13 14 18 rings

> <PUBCHEM_HEAVY_ATOM_COUNT>
23

> <PUBCHEM_ATOM_DEF_STEREO_COUNT>
0

> <PUBCHEM_ATOM_UDEF_STEREO_COUNT>
0

> <PUBCHEM_BOND_DEF_STEREO_COUNT>
0

> <PUBCHEM_BOND_UDEF_STEREO_COUNT>
0

> <PUBCHEM_ISOTOPIC_ATOM_COUNT>
0

> <PUBCHEM_COMPONENT_COUNT>
1

> <PUBCHEM_CACTVS_TAUTO_COUNT>
5

> <PUBCHEM_CONFORMER_ID>
00075B0800000001

> <PUBCHEM_MMFF94_ENERGY>
47.379

> <PUBCHEM_FEATURE_SELFOVERLAP>
35.572

> <PUBCHEM_SHAPE_FINGERPRINT>
10042902 136 13407377221165713041
10299344 5 18333169471169789362
10674148 151 18413673514070557562
10692045 39 18340211795157840523
11128504 68 10592047963817441412
11638347 137 17385731309843301547
12107183 9 18410855460444770424
12236239 1 18335701675722018339
12422481 6 18262233322350457932
12596602 18 18187930637543878833
12778500 126 18412263930993591776
13073987 5 18194120943600017982
13402501 40 16559028285571887672
13533116 47 17967533489128532316
13673619 4 13767931230251230343
13685833 64 16660362576160215800
13690498 29 9222939345708803305
14123256 10 9799690402444678324
14251732 14 12179846095634249830
14251764 18 18409730685544994436
14251764 30 14707208824750098825
14341114 176 18113896057538495204
14347424 109 18343578547961078048
14428016 545 18262797359046883152
14466204 15 18272374152896760073
14528608 73 10735882781113526326
14617045 38 14201396079651000536
14767858 380 9943803382886277484
14840074 17 18040431083847767258
15003188 100 13326848959672537970
15183329 4 18410853269700135088
15238133 3 18131073744642082784
15352257 5 15285361721101014024
15461852 350 17060054899594822637
15537594 2 17821439171643593074
16994733 274 15625678124421087491
173720 79 18341898493666114015
19489759 90 17632577175683489343
20157964 124 12679465296541211572
20554085 129 17489304157812148147
20567600 254 14979954783639050070
20567600 75 16660635250675279151
21033648 29 16630533950521265492
21065198 48 18265331888210257998
21150785 3 10735871768727851461
21267235 1 17968372356966854938
212916 134 17989486333518941719
21315763 76 12967126138428199346
21365058 113 15285363903345587174
21403212 168 18336260159431912087
21591340 7 18412259529047440165
21623969 137 16225764112586321058
21639891 77 17559394863346024851
22849341 161 17676211290221119668
23016692 55 12251902598782133079
2303208 19 15068336830381684484
23522609 53 18115612433649754180
23559900 14 17488764323361677996
2838139 119 16702013171784634833
3117164 225 18338515356153122496
312425 54 18338789113648667538
3459 39 18059285462265236009
345986 75 18042385981505165056
3680242 22 18410301323664553001
4073 2 17971475341551346432
437815 12 14996286929194511061
445580 126 18201445732079179345
46194498 28 14345796059315274246
5104073 3 18264210373137931475
5207 217 11455885879855253028
5283384 27 14476950199864025666
5385378 56 18200887162596981487
54039377 194 17677887939129341554
6299153 45 18410293579890889123
7226269 152 17917993867109442017
7237137 82 9367077640229215379
9965369 4 18410572898920396647
9981440 41 18342750615616198619

> <PUBCHEM_SHAPE_MULTIPOLES>
451.39
19.69
2.11
1.37
1.18
0.59
-0.09
-2.45
-8.67
-0.6
0.2
0.89
-0.09
-2.86

> <PUBCHEM_SHAPE_SELFOVERLAP>
959.211

> <PUBCHEM_SHAPE_VOLUME>
252.8

> <PUBCHEM_COORDINATE_TYPE>
2
5
10

$$$$
87406425
  -OEChem-05102415123D

 44 47  0     0  0  0  0  0  0999 V2000
    2.6473   -2.6787   -0.1602 S   0  0  0  0  0  0  0  0  0  0  0  0
    0.6400    1.4831    0.3371 O   0  0  0  0  0  0  0  0  0  0  0  0
   -4.2095    0.1721    0.1061 N   0  0  0  0  0  0  0  0  0  0  0  0
   -1.3241    0.2622    0.3173 N   0  0  0  0  0  0  0  0  0  0  0  0
    0.7528   -0.8322    0.1186 N   0  0  0  0  0  0  0  0  0  0  0  0
   -8.3640    0.0185   -0.4019 N   0  0  0  0  0  0  0  0  0  0  0  0
    3.1047   -0.1428    0.0463 N   0  0  0  0  0  0  0  0  0  0  0  0
    7.9577    1.3869   -0.0917 N   0  0  0  0  0  0  0  0  0  0  0  0
   -3.4498    1.3479   -0.3278 C   0  0  0  0  0  0  0  0  0  0  0  0
   -3.4857   -0.9085    0.7787 C   0  0  0  0  0  0  0  0  0  0  0  0
   -2.1422    1.4656    0.4522 C   0  0  0  0  0  0  0  0  0  0  0  0
   -2.0518   -1.0103    0.2567 C   0  0  0  0  0  0  0  0  0  0  0  0
   -5.5911    0.1209   -0.0629 C   0  0  0  0  0  0  0  0  0  0  0  0
    0.0840    0.3849    0.2686 C   0  0  0  0  0  0  0  0  0  0  0  0
   -6.3770   -0.6031    0.8271 C   0  0  0  0  0  0  0  0  0  0  0  0
   -6.1901    0.7937   -1.1221 C   0  0  0  0  0  0  0  0  0  0  0  0
   -7.7462   -0.6226    0.6155 C   0  0  0  0  0  0  0  0  0  0  0  0
   -7.5677    0.7117   -1.2465 C   0  0  0  0  0  0  0  0  0  0  0  0
    2.1500   -1.0460    0.0186 C   0  0  0  0  0  0  0  0  0  0  0  0
    4.3243   -0.7784   -0.0827 C   0  0  0  0  0  0  0  0  0  0  0  0
    4.2785   -2.1513   -0.2061 C   0  0  0  0  0  0  0  0  0  0  0  0
    5.5565   -0.0441   -0.0858 C   0  0  0  0  0  0  0  0  0  0  0  0
    6.6518   -0.5215   -0.7970 C   0  0  0  0  0  0  0  0  0  0  0  0
    5.6604    1.1480    0.6225 C   0  0  0  0  0  0  0  0  0  0  0  0
    7.8191    0.2246   -0.7682 C   0  0  0  0  0  0  0  0  0  0  0  0
    6.8719    1.8195    0.5878 C   0  0  0  0  0  0  0  0  0  0  0  0
   -3.2346    1.2650   -1.4002 H   0  0  0  0  0  0  0  0  0  0  0  0
   -4.0254    2.2670   -0.1629 H   0  0  0  0  0  0  0  0  0  0  0  0
   -3.9696   -1.8779    0.6084 H   0  0  0  0  0  0  0  0  0  0  0  0
   -3.4784   -0.7193    1.8593 H   0  0  0  0  0  0  0  0  0  0  0  0
   -1.5858    2.3453    0.1128 H   0  0  0  0  0  0  0  0  0  0  0  0
   -2.3417    1.5980    1.5227 H   0  0  0  0  0  0  0  0  0  0  0  0
   -1.5280   -1.7670    0.8486 H   0  0  0  0  0  0  0  0  0  0  0  0
   -2.0459   -1.3306   -0.7920 H   0  0  0  0  0  0  0  0  0  0  0  0
   -5.9659   -1.1330    1.6793 H   0  0  0  0  0  0  0  0  0  0  0  0
   -5.6249    1.3616   -1.8528 H   0  0  0  0  0  0  0  0  0  0  0  0
    0.2230   -1.6917    0.0339 H   0  0  0  0  0  0  0  0  0  0  0  0
   -8.4039   -1.1692    1.2833 H   0  0  0  0  0  0  0  0  0  0  0  0
   -8.0833    1.2156   -2.0574 H   0  0  0  0  0  0  0  0  0  0  0  0
    5.0811   -2.8688   -0.3065 H   0  0  0  0  0  0  0  0  0  0  0  0
    6.6266   -1.4354   -1.3810 H   0  0  0  0  0  0  0  0  0  0  0  0
    4.8340    1.5567    1.1950 H   0  0  0  0  0  0  0  0  0  0  0  0
    8.7009   -0.1020   -1.3096 H   0  0  0  0  0  0  0  0  0  0  0  0
    7.0051    2.7532    1.1243 H   0  0  0  0  0  0  0  0  0  0  0  0
  1 19  1  0  0  0  0
  1 21  1  0  0  0  0
  2 14  2  0  0  0  0
  3  9  1  0  0  0  0
  3 10  1  0  0  0  0
  3 13  1  0  0  0  0
  4 11  1  0  0  0  0
  4 12  1  0  0  0  0
  4 14  1  0  0  0  0
  5 14  1  0  0  0  0
  5 19  1  0  0  0  0
  5 37  1  0  0  0  0
  6 17  2  0  0  0  0
  6 18  1  0  0  0  0
  7 19  2  0  0  0  0
  7 20  1  0  0  0  0
  8 25  2  0  0  0  0
  8 26  1  0  0  0  0
  9 11  1  0  0  0  0
  9 27  1  0  0  0  0
  9 28  1  0  0  0  0
 10 12  1  0  0  0  0
 10 29  1  0  0  0  0
 10 30  1  0  0  0  0
 11 31  1  0  0  0  0
 11 32  1  0  0  0  0
 12 33  1  0  0  0  0
 12 34  1  0  0  0  0
 13 15  2  0  0  0  0
 13 16  1  0  0  0  0
 15 17  1  0  0  0  0
 15 35  1  0  0  0  0
 16 18  2  0  0  0  0
 16 36  1  0  0  0  0
 17 38  1  0  0  0  0
 18 39  1  0  0  0  0
 20 21  2  0  0  0  0
 20 22  1  0  0  0  0
 21 40  1  0  0  0  0
 22 23  2  0  0  0  0
 22 24  1  0  0  0  0
 23 25  1  0  0  0  0
 23 41  1  0  0  0  0
 24 26  2  0  0  0  0
 24 42  1  0  0  0  0
 25 43  1  0  0  0  0
 26 44  1  0  0  0  0
M  END
> <PUBCHEM_COMPOUND_CID>
87406425

> <PUBCHEM_CONFORMER_RMSD>
0.8

> <PUBCHEM_CONFORMER_DIVERSEORDER>
1
17
23
22
3
16
4
19
15
18
10
7
9
11
21
2
14
20
6
12
13
5
8

> <PUBCHEM_MMFF94_PARTIAL_CHARGES>
36
1 -0.08
10 0.37
11 0.3
12 0.3
13 0.1
14 0.69
15 -0.15
16 -0.15
17 0.16
18 0.16
19 0.44
2 -0.57
20 0.17
21 -0.11
22 0.05
23 -0.15
24 -0.15
25 0.16
26 0.16
3 -0.84
35 0.15
36 0.15
37 0.37
38 0.15
39 0.15
4 -0.66
40 0.15
41 0.15
42 0.15
43 0.15
44 0.15
5 -0.49
6 -0.62
7 -0.57
8 -0.62
9 0.37

> <PUBCHEM_EFFECTIVE_ROTOR_COUNT>
6.2

> <PUBCHEM_PHARMACOPHORE_FEATURES>
9
1 2 acceptor
1 3 cation
1 5 donor
1 6 acceptor
1 8 acceptor
5 1 7 19 20 21 rings
6 3 4 9 10 11 12 rings
6 6 13 15 16 17 18 rings
6 8 22 23 24 25 26 rings

> <PUBCHEM_HEAVY_ATOM_COUNT>
26

> <PUBCHEM_ATOM_DEF_STEREO_COUNT>
0

> <PUBCHEM_ATOM_UDEF_STEREO_COUNT>
0

> <PUBCHEM_BOND_DEF_STEREO_COUNT>
0

> <PUBCHEM_BOND_UDEF_STEREO_COUNT>
0

> <PUBCHEM_ISOTOPIC_ATOM_COUNT>
0

> <PUBCHEM_COMPONENT_COUNT>
1

> <PUBCHEM_CACTVS_TAUTO_COUNT>
3

> <PUBCHEM_CONFORMER_ID>
0535B75900000001

> <PUBCHEM_MMFF94_ENERGY>
77.2983

> <PUBCHEM_FEATURE_SELFOVERLAP>
45.672

> <PUBCHEM_SHAPE_FINGERPRINT>
10 15 18113897173618354906
10050765 1 18123754149300674112
10299344 5 16272209686755801333
10319688 140 17845099463483103350
10595046 47 18271246001988873217
10674148 151 13326852223847890982
10835480 77 18334292037865642213
10968037 39 18411419510294882843
11181472 205 17345483579002439601
11315181 36 18341614807556842497
11456790 92 11891336409702303551
11638347 137 16950276292145908834
11719270 70 18334012783461272954
12144603 126 17775008964898343537
12516196 113 18413952780231324289
12838862 33 18340192060062105650
13150687 139 18273224093087360950
13533116 47 17703507688324625963
13673619 4 11743840257335557538
13914758 101 13045935781489443591
14118638 360 18340207388478742224
14123256 10 18412827984362944852
14170010 4 18409729582081712756
14251764 18 17703791414248613809
14251764 46 18410856563934763371
14461889 52 18113621205027290018
1454969 45 18131068229508228159
14840074 17 17704347758558132487
14856354 85 16056875854311981445
150020 25 18408606954702326110
15183329 4 18342174445335987699
15419008 47 18260541230017856325
15461852 350 16081379565325377075
15510794 2 18186523194553090131
1577012 14 18200317615494328473
15849732 13 18409167722944003013
1754911 235 18201719552527382733
18335252 98 18335425673188218931
18365409 1 18270399528655539910
18608769 82 18336829788096720547
195137 175 17846222125258300329
20157964 124 18411419497505153846
20238998 120 18186802482537502885
20554085 129 17312816091781670200
21049683 271 18343021116239500033
21095086 128 16128377064810464628
21150785 3 17632294579361520981
21315759 40 15626229000820265566
21521721 280 18272371983542474586
21591340 7 12251904807070744945
220451 1 16773791481326593855
22224240 67 18187083970788751298
23035841 295 15267059242034149861
23522609 53 17346056505663769073
23559900 14 18339073891355170857
246663 6 12895072928950201404
24771750 20 17899430958211043797
249057 25 12973891364469773999
255183 451 17558844880146712382
3009799 131 18040997332541488265
335352 9 18412539913207894415
34797466 226 17846786200244804332
4073 2 18187088381393480922
4325135 7 18341895195052148556
54039377 194 17488735814186925631
5937810 71 18339642223362179685
6081469 158 18113618950844289742
6201320 215 14491011806832509079
67123 10 18412825803126336839

> <PUBCHEM_SHAPE_MULTIPOLES>
503.16
27.17
1.87
0.9
7.91
0.6
-0.11
-6.09
-4.11
-2.63
0.07
0.7
-0.08
1.5

> <PUBCHEM_SHAPE_SELFOVERLAP>
1077.792

> <PUBCHEM_SHAPE_VOLUME>
279.5

> <PUBCHEM_COORDINATE_TYPE>
2
5
10

$$$$
87406413
  -OEChem-05102415123D

 44 46  0     0  0  0  0  0  0999 V2000
   -2.5435    2.7149    1.2447 S   0  0  0  0  0  0  0  0  0  0  0  0
    4.5486    1.5072    0.1521 O   0  0  0  0  0  0  0  0  0  0  0  0
    5.9456   -0.3779    1.6178 O   0  0  0  0  0  0  0  0  0  0  0  0
   -0.0588   -0.1868   -1.4627 O   0  0  0  0  0  0  0  0  0  0  0  0
    1.5774    1.3917   -1.0412 N   0  0  0  0  0  0  0  0  0  0  0  0
   -0.5084    1.6861   -0.1209 N   0  0  0  0  0  0  0  0  0  0  0  0
   -2.6589    0.5134   -0.1051 N   0  0  0  0  0  0  0  0  0  0  0  0
   -7.0875   -1.9964   -0.1307 N   0  0  0  0  0  0  0  0  0  0  0  0
    3.3893   -0.2363   -1.0039 C   0  0  0  0  0  0  0  0  0  0  0  0
    2.6219    0.7617   -1.8069 C   0  0  0  0  0  0  0  0  0  0  0  0
    4.3236    0.1779   -0.0545 C   0  0  0  0  0  0  0  0  0  0  0  0
    3.1624   -1.5968   -1.2119 C   0  0  0  0  0  0  0  0  0  0  0  0
    5.0311   -0.7683    0.6868 C   0  0  0  0  0  0  0  0  0  0  0  0
    3.8699   -2.5431   -0.4705 C   0  0  0  0  0  0  0  0  0  0  0  0
    4.8043   -2.1288    0.4788 C   0  0  0  0  0  0  0  0  0  0  0  0
    0.2862    0.8613   -0.9219 C   0  0  0  0  0  0  0  0  0  0  0  0
   -3.9009    0.7211    0.4626 C   0  0  0  0  0  0  0  0  0  0  0  0
   -1.8636    1.5016    0.2395 C   0  0  0  0  0  0  0  0  0  0  0  0
   -4.9815   -0.2004    0.2613 C   0  0  0  0  0  0  0  0  0  0  0  0
   -4.0306    1.8609    1.2281 C   0  0  0  0  0  0  0  0  0  0  0  0
    5.5643    2.1211   -0.6378 C   0  0  0  0  0  0  0  0  0  0  0  0
   -6.2960    0.2528    0.2688 C   0  0  0  0  0  0  0  0  0  0  0  0
   -4.7188   -1.5507    0.0580 C   0  0  0  0  0  0  0  0  0  0  0  0
    6.6247   -1.4095    2.3314 C   0  0  0  0  0  0  0  0  0  0  0  0
   -7.3038   -0.6770    0.0698 C   0  0  0  0  0  0  0  0  0  0  0  0
   -5.7971   -2.3999   -0.1316 C   0  0  0  0  0  0  0  0  0  0  0  0
    3.2743    1.5507   -2.1930 H   0  0  0  0  0  0  0  0  0  0  0  0
    2.1719    0.2862   -2.6869 H   0  0  0  0  0  0  0  0  0  0  0  0
    2.4371   -1.9361   -1.9466 H   0  0  0  0  0  0  0  0  0  0  0  0
    1.7964    2.2514   -0.5472 H   0  0  0  0  0  0  0  0  0  0  0  0
    3.6922   -3.6023   -0.6329 H   0  0  0  0  0  0  0  0  0  0  0  0
    5.3156   -2.9195    1.0168 H   0  0  0  0  0  0  0  0  0  0  0  0
   -0.0844    2.5271    0.2610 H   0  0  0  0  0  0  0  0  0  0  0  0
   -4.8816    2.2366    1.7793 H   0  0  0  0  0  0  0  0  0  0  0  0
    5.4102    3.2034   -0.6136 H   0  0  0  0  0  0  0  0  0  0  0  0
    5.5335    1.7851   -1.6792 H   0  0  0  0  0  0  0  0  0  0  0  0
    6.5468    1.8985   -0.2104 H   0  0  0  0  0  0  0  0  0  0  0  0
   -6.5626    1.2955    0.4058 H   0  0  0  0  0  0  0  0  0  0  0  0
   -3.7099   -1.9505    0.0484 H   0  0  0  0  0  0  0  0  0  0  0  0
    7.3130   -0.9196    3.0280 H   0  0  0  0  0  0  0  0  0  0  0  0
    5.9323   -2.0056    2.9356 H   0  0  0  0  0  0  0  0  0  0  0  0
    7.2350   -2.0275    1.6640 H   0  0  0  0  0  0  0  0  0  0  0  0
   -8.3457   -0.3742    0.0624 H   0  0  0  0  0  0  0  0  0  0  0  0
   -5.6460   -3.4621   -0.2932 H   0  0  0  0  0  0  0  0  0  0  0  0
  1 18  1  0  0  0  0
  1 20  1  0  0  0  0
  2 11  1  0  0  0  0
  2 21  1  0  0  0  0
  3 13  1  0  0  0  0
  3 24  1  0  0  0  0
  4 16  2  0  0  0  0
  5 10  1  0  0  0  0
  5 16  1  0  0  0  0
  5 30  1  0  0  0  0
  6 16  1  0  0  0  0
  6 18  1  0  0  0  0
  6 33  1  0  0  0  0
  7 17  1  0  0  0  0
  7 18  2  0  0  0  0
  8 25  2  0  0  0  0
  8 26  1  0  0  0  0
  9 10  1  0  0  0  0
  9 11  2  0  0  0  0
  9 12  1  0  0  0  0
 10 27  1  0  0  0  0
 10 28  1  0  0  0  0
 11 13  1  0  0  0  0
 12 14  2  0  0  0  0
 12 29  1  0  0  0  0
 13 15  2  0  0  0  0
 14 15  1  0  0  0  0
 14 31  1  0  0  0  0
 15 32  1  0  0  0  0
 17 19  1  0  0  0  0
 17 20  2  0  0  0  0
 19 22  2  0  0  0  0
 19 23  1  0  0  0  0
 20 34  1  0  0  0  0
 21 35  1  0  0  0  0
 21 36  1  0  0  0  0
 21 37  1  0  0  0  0
 22 25  1  0  0  0  0
 22 38  1  0  0  0  0
 23 26  2  0  0  0  0
 23 39  1  0  0  0  0
 24 40  1  0  0  0  0
 24 41  1  0  0  0  0
 24 42  1  0  0  0  0
 25 43  1  0  0  0  0
 26 44  1  0  0  0  0
M  END
> <PUBCHEM_COMPOUND_CID>
87406413

> <PUBCHEM_CONFORMER_RMSD>
1

> <PUBCHEM_CONFORMER_DIVERSEORDER>
1
68
113
137
128
11
146
73
88
51
47
112
83
104
87
120
46
8
69
29
25
52
105
22
55
28
74
119
9
15
134
131
36
64
96
101
133
12
81
103
127
99
130
54
66
14
107
97
75
135
121
141
35
41
62
76
34
37
100
86
2
16
19
80
106
79
32
143
45
13
63
144
4
93
57
39
117
72
138
115
139
95
7
65
126
24
50
26
102
53
89
56
6
70
109
124
61
132
114
38
129
31
42
77
71
23
82
33
94
85
108
17
5
123
111
67
90
18
145
136
43
44
84
20
78
10
58
3
118
142
21
122
59
48
60
110
140
30
49
27
98
125
92
91
116
40

> <PUBCHEM_MMFF94_PARTIAL_CHARGES>
36
1 -0.08
10 0.44
11 0.08
12 -0.15
13 0.08
14 -0.15
15 -0.15
16 0.69
17 0.17
18 0.44
19 0.05
2 -0.36
20 -0.11
21 0.28
22 -0.15
23 -0.15
24 0.28
25 0.16
26 0.16
29 0.15
3 -0.36
30 0.37
31 0.15
32 0.15
33 0.37
34 0.15
38 0.15
39 0.15
4 -0.57
43 0.15
44 0.15
5 -0.73
6 -0.49
7 -0.57
8 -0.62
9 -0.14

> <PUBCHEM_EFFECTIVE_ROTOR_COUNT>
8

> <PUBCHEM_PHARMACOPHORE_FEATURES>
9
1 2 acceptor
1 3 acceptor
1 4 acceptor
1 5 donor
1 6 donor
1 8 acceptor
5 1 7 17 18 20 rings
6 8 19 22 23 25 26 rings
6 9 11 12 13 14 15 rings

> <PUBCHEM_HEAVY_ATOM_COUNT>
26

> <PUBCHEM_ATOM_DEF_STEREO_COUNT>
0

> <PUBCHEM_ATOM_UDEF_STEREO_COUNT>
0

> <PUBCHEM_BOND_DEF_STEREO_COUNT>
0

> <PUBCHEM_BOND_UDEF_STEREO_COUNT>
0

> <PUBCHEM_ISOTOPIC_ATOM_COUNT>
0

> <PUBCHEM_COMPONENT_COUNT>
1

> <PUBCHEM_CACTVS_TAUTO_COUNT>
5

> <PUBCHEM_CONFORMER_ID>
0535B74D00000001

> <PUBCHEM_MMFF94_ENERGY>
80.0587

> <PUBCHEM_FEATURE_SELFOVERLAP>
45.728

> <PUBCHEM_SHAPE_FINGERPRINT>
10 15 17203322321250624008
10378564 45 11746939785135571590
10939801 23 18128538356294897093
11443803 9 18264501745054259852
1200032 147 13614231621313106942
12342043 65 16269990799292895749
12523318 42 18130508539994147209
12596602 18 18410293614087064665
12892183 10 17916583120924357452
13533116 47 18408606967666316760
13782708 43 16371873896860332771
13914758 101 17604147039643206917
14211702 104 18335994124889309731
14251740 57 18270972241322306022
14251764 75 14906463507884899138
14347332 77 18335704932072529093
14565420 104 18266174132052183024
15052358 14 12251902577112215299
15183329 4 11891329829163487127
15188451 53 18335697226193908961
15210252 30 11887371618128654178
17492 89 18128264393474690430
17857418 61 18408609171284992671
19315092 285 17823683210440773688
19377110 9 17989199352494150660
20028762 73 18334856083052262986
22061861 79 15647059274098541711
22149856 69 17631750300306487195
2215653 11 14851606578719304729
23559900 14 18342171220401637113
249057 3 8502384312703325732
3004659 81 18334869332756482191
312425 54 18129105515411285635
3298306 158 13695589961823621921
3886686 26 17407125361218105995
394071 54 14764337258859958192
4058900 60 8357993186201331141
5085150 59 18343017758329000215
5104073 3 17774727433095248779
59682541 52 15502364630757944195
6438161 24 18410853292298922607
6443934 186 18342459266087096312
8988823 20 17894914053207084300
96874 4 18187355528427792403

> <PUBCHEM_SHAPE_MULTIPOLES>
501.39
20.6
2.82
1.47
10.75
0.13
0.33
10.07
6.31
0.56
0.31
-2.68
-0.02
-2.22

> <PUBCHEM_SHAPE_SELFOVERLAP>
1064.731

> <PUBCHEM_SHAPE_VOLUME>
282.6

> <PUBCHEM_COORDINATE_TYPE>
2
5
10

$$$$
87408604
  -OEChem-05102415123D

 43 46  0     1  0  0  0  0  0999 V2000
   -2.1522   -2.4242    1.4290 S   0  0  0  0  0  0  0  0  0  0  0  0
    0.1111    1.1977   -0.4901 O   0  0  0  0  0  0  0  0  0  0  0  0
    1.9299    0.0128    0.3033 N   0  0  0  0  0  0  0  0  0  0  0  0
   -0.1691   -0.8347    0.6506 N   0  0  0  0  0  0  0  0  0  0  0  0
   -2.4816   -0.2064    0.1426 N   0  0  0  0  0  0  0  0  0  0  0  0
   -7.2530    1.1828   -0.9599 N   0  0  0  0  0  0  0  0  0  0  0  0
    2.9426    0.9374   -0.1581 C   0  0  1  0  0  0  0  0  0  0  0  0
    3.1797    2.0437    0.8776 C   0  0  0  0  0  0  0  0  0  0  0  0
    4.0573    1.5513    2.0240 C   0  0  0  0  0  0  0  0  0  0  0  0
    5.4282    1.1273    1.5042 C   0  0  0  0  0  0  0  0  0  0  0  0
    4.2073    0.1933   -0.5278 C   0  0  0  0  0  0  0  0  0  0  0  0
    5.3615    0.2542    0.2763 C   0  0  0  0  0  0  0  0  0  0  0  0
    4.2212   -0.6018   -1.6866 C   0  0  0  0  0  0  0  0  0  0  0  0
    6.5063   -0.4637   -0.1045 C   0  0  0  0  0  0  0  0  0  0  0  0
    5.3621   -1.3174   -2.0480 C   0  0  0  0  0  0  0  0  0  0  0  0
    6.5046   -1.2478   -1.2574 C   0  0  0  0  0  0  0  0  0  0  0  0
    0.5645    0.2185    0.0976 C   0  0  0  0  0  0  0  0  0  0  0  0
   -1.5732   -1.0053    0.6569 C   0  0  0  0  0  0  0  0  0  0  0  0
   -3.7320   -0.7470    0.3704 C   0  0  0  0  0  0  0  0  0  0  0  0
   -4.9261   -0.0926   -0.0807 C   0  0  0  0  0  0  0  0  0  0  0  0
   -3.7554   -1.9454    1.0525 C   0  0  0  0  0  0  0  0  0  0  0  0
   -6.1153   -0.2469    0.6232 C   0  0  0  0  0  0  0  0  0  0  0  0
   -4.8990    0.6989   -1.2237 C   0  0  0  0  0  0  0  0  0  0  0  0
   -7.2406    0.4058    0.1464 C   0  0  0  0  0  0  0  0  0  0  0  0
   -6.0788    1.3095   -1.6178 C   0  0  0  0  0  0  0  0  0  0  0  0
    2.5600    1.4268   -1.0637 H   0  0  0  0  0  0  0  0  0  0  0  0
    2.2281    2.4188    1.2728 H   0  0  0  0  0  0  0  0  0  0  0  0
    3.6788    2.8939    0.3938 H   0  0  0  0  0  0  0  0  0  0  0  0
    3.5709    0.7064    2.5274 H   0  0  0  0  0  0  0  0  0  0  0  0
    4.1774    2.3419    2.7732 H   0  0  0  0  0  0  0  0  0  0  0  0
    5.9610    0.6030    2.3065 H   0  0  0  0  0  0  0  0  0  0  0  0
    6.0105    2.0223    1.2512 H   0  0  0  0  0  0  0  0  0  0  0  0
    2.2203   -0.7984    0.8415 H   0  0  0  0  0  0  0  0  0  0  0  0
    3.3362   -0.6673   -2.3154 H   0  0  0  0  0  0  0  0  0  0  0  0
    7.4102   -0.4113    0.4979 H   0  0  0  0  0  0  0  0  0  0  0  0
    5.3586   -1.9272   -2.9465 H   0  0  0  0  0  0  0  0  0  0  0  0
    7.3958   -1.8006   -1.5394 H   0  0  0  0  0  0  0  0  0  0  0  0
    0.3449   -1.5818    1.1092 H   0  0  0  0  0  0  0  0  0  0  0  0
   -4.5920   -2.5673    1.3395 H   0  0  0  0  0  0  0  0  0  0  0  0
   -6.1949   -0.8374    1.5298 H   0  0  0  0  0  0  0  0  0  0  0  0
   -3.9956    0.8449   -1.8072 H   0  0  0  0  0  0  0  0  0  0  0  0
   -8.1920    0.3212    0.6612 H   0  0  0  0  0  0  0  0  0  0  0  0
   -6.1112    1.9362   -2.5030 H   0  0  0  0  0  0  0  0  0  0  0  0
  1 18  1  0  0  0  0
  1 21  1  0  0  0  0
  2 17  2  0  0  0  0
  3  7  1  0  0  0  0
  3 17  1  0  0  0  0
  3 33  1  0  0  0  0
  4 17  1  0  0  0  0
  4 18  1  0  0  0  0
  4 38  1  0  0  0  0
  5 18  2  0  0  0  0
  5 19  1  0  0  0  0
  6 24  2  0  0  0  0
  6 25  1  0  0  0  0
  7  8  1  0  0  0  0
  7 11  1  0  0  0  0
  7 26  1  0  0  0  0
  8  9  1  0  0  0  0
  8 27  1  0  0  0  0
  8 28  1  0  0  0  0
  9 10  1  0  0  0  0
  9 29  1  0  0  0  0
  9 30  1  0  0  0  0
 10 12  1  0  0  0  0
 10 31  1  0  0  0  0
 10 32  1  0  0  0  0
 11 12  1  0  0  0  0
 11 13  2  0  0  0  0
 12 14  2  0  0  0  0
 13 15  1  0  0  0  0
 13 34  1  0  0  0  0
 14 16  1  0  0  0  0
 14 35  1  0  0  0  0
 15 16  2  0  0  0  0
 15 36  1  0  0  0  0
 16 37  1  0  0  0  0
 19 20  1  0  0  0  0
 19 21  2  0  0  0  0
 20 22  2  0  0  0  0
 20 23  1  0  0  0  0
 21 39  1  0  0  0  0
 22 24  1  0  0  0  0
 22 40  1  0  0  0  0
 23 25  2  0  0  0  0
 23 41  1  0  0  0  0
 24 42  1  0  0  0  0
 25 43  1  0  0  0  0
M  END
> <PUBCHEM_COMPOUND_CID>
87408604

> <PUBCHEM_CONFORMER_RMSD>
0.8

> <PUBCHEM_CONFORMER_DIVERSEORDER>
1
15
50
30
53
17
46
47
24
52
32
27
44
39
28
21
49
35
34
45
6
33
37
26
19
42
22
10
25
29
43
5
48
41
12
51
31
16
7
20
36
8
11
9
14
23
38
40
2
18
13
4
3

> <PUBCHEM_MMFF94_PARTIAL_CHARGES>
34
1 -0.08
10 0.14
11 -0.14
12 -0.14
13 -0.15
14 -0.15
15 -0.15
16 -0.15
17 0.69
18 0.44
19 0.17
2 -0.57
20 0.05
21 -0.11
22 -0.15
23 -0.15
24 0.16
25 0.16
3 -0.73
33 0.37
34 0.15
35 0.15
36 0.15
37 0.15
38 0.37
39 0.15
4 -0.49
40 0.15
41 0.15
42 0.15
43 0.15
5 -0.57
6 -0.62
7 0.44

> <PUBCHEM_EFFECTIVE_ROTOR_COUNT>
5.8

> <PUBCHEM_PHARMACOPHORE_FEATURES>
8
1 2 acceptor
1 3 donor
1 4 donor
1 6 acceptor
5 1 5 18 19 21 rings
6 11 12 13 14 15 16 rings
6 6 20 22 23 24 25 rings
6 7 8 9 10 11 12 rings

> <PUBCHEM_HEAVY_ATOM_COUNT>
25

> <PUBCHEM_ATOM_DEF_STEREO_COUNT>
1

> <PUBCHEM_ATOM_UDEF_STEREO_COUNT>
0

> <PUBCHEM_BOND_DEF_STEREO_COUNT>
0

> <PUBCHEM_BOND_UDEF_STEREO_COUNT>
0

> <PUBCHEM_ISOTOPIC_ATOM_COUNT>
0

> <PUBCHEM_COMPONENT_COUNT>
1

> <PUBCHEM_CACTVS_TAUTO_COUNT>
5

> <PUBCHEM_CONFORMER_ID>
0535BFDC00000001

> <PUBCHEM_MMFF94_ENERGY>
53.2755

> <PUBCHEM_FEATURE_SELFOVERLAP>
40.671

> <PUBCHEM_SHAPE_FINGERPRINT>
10 15 16081371826722743653
10299344 5 15502375625526068625
10670039 82 18114182973896548053
10674148 151 17167863059271922466
10835480 77 18272087262019043424
10951579 204 18193286199748738108
11724838 91 14979954766622749950
11796584 16 18260832635528004874
12236239 1 15936128568757999037
12516196 113 9871749096569370411
12596602 18 13973689390998364894
12616971 3 15285627833406961274
13533116 47 16988847168427319146
13878862 14 17703495680244841864
13914758 101 17346606231581385121
14251752 14 17748828501190875694
14251758 9 18335424573037858889
14251764 18 16081088186723553387
14294032 229 17314790685379028005
14849402 71 14274037540486516111
14856354 85 15864360168507594899
14933364 13 12973601131864491455
15119646 104 16128662920516758087
15183329 4 18408889503389030499
15188451 53 14764350392870182582
15338160 23 12180109953325968103
15419008 47 18411415094367909068
15685185 35 13841708508078967374
1577012 14 16298385768995292207
15799311 1 14490476374059066265
17844677 252 17823144586459143737
17857418 61 15482673476472843063
19377110 9 13973697138739519655
20028762 73 15625950798719210454
20157964 124 17346599698978371008
20281389 69 16877940546971941237
20511986 3 15913034422491720044
21033648 29 18337665433896830488
21223535 225 18058176029606209401
21279426 13 18410012151984537617
21315764 119 17894920594516369126
21859007 373 18336536157903509148
220451 1 15502373452082719587
22061861 79 18131918164855007607
2215653 11 18343587334857529966
22224240 67 11241974789376760825
23081809 10 16225761952038526859
23522609 53 15792026544878322799
23559900 14 18341333387391385512
249057 25 15554457309543328938
29717793 49 17132120130132023044
3004659 81 17676492765471837684
3545911 37 18260831501476920115
3633792 109 17489872596654412155
4015057 19 17560798891906014643
4073 2 18129941307752980014
5385378 56 18114179671535884171
59755656 215 18334857182120083758
6698420 124 18271538528961026507
8988823 20 17275105042278026872

> <PUBCHEM_SHAPE_MULTIPOLES>
492.54
21.54
1.86
1.69
11.8
0.39
-0.2
-2.66
-5.74
0.16
0.54
-1.51
0.02
4.16

> <PUBCHEM_SHAPE_SELFOVERLAP>
1061.977

> <PUBCHEM_SHAPE_VOLUME>
271.8

> <PUBCHEM_COORDINATE_TYPE>
2
5
10

$$$$
87405235
  -OEChem-05102415133D

 46 49  0     0  0  0  0  0  0999 V2000
    2.6871   -1.7713    2.3907 S   0  0  0  0  0  0  0  0  0  0  0  0
    0.1319    0.3392   -0.9170 O   0  0  0  0  0  0  0  0  0  0  0  0
   -1.5747   -0.5413    0.3669 N   0  0  0  0  0  0  0  0  0  0  0  0
    0.5794   -0.9169    1.0150 N   0  0  0  0  0  0  0  0  0  0  0  0
    2.8318   -0.3537    0.2338 N   0  0  0  0  0  0  0  0  0  0  0  0
    7.4715    0.8680   -1.4667 N   0  0  0  0  0  0  0  0  0  0  0  0
   -2.6701   -0.0299   -0.4513 C   0  0  0  0  0  0  0  0  0  0  0  0
   -3.8263   -1.0276   -0.5109 C   0  0  0  0  0  0  0  0  0  0  0  0
   -3.0976    1.3469   -0.0691 C   0  0  0  0  0  0  0  0  0  0  0  0
   -3.8626   -1.9943   -1.5159 C   0  0  0  0  0  0  0  0  0  0  0  0
   -3.6238    2.2069   -1.0330 C   0  0  0  0  0  0  0  0  0  0  0  0
   -4.8454   -0.9712    0.4397 C   0  0  0  0  0  0  0  0  0  0  0  0
   -2.9709    1.7745    1.2524 C   0  0  0  0  0  0  0  0  0  0  0  0
   -0.2389   -0.3089    0.0589 C   0  0  0  0  0  0  0  0  0  0  0  0
   -4.9181   -2.9047   -1.5702 C   0  0  0  0  0  0  0  0  0  0  0  0
   -4.0234    3.4946   -0.6754 C   0  0  0  0  0  0  0  0  0  0  0  0
   -5.9008   -1.8815    0.3855 C   0  0  0  0  0  0  0  0  0  0  0  0
   -3.3705    3.0621    1.6102 C   0  0  0  0  0  0  0  0  0  0  0  0
   -5.9372   -2.8483   -0.6195 C   0  0  0  0  0  0  0  0  0  0  0  0
   -3.8967    3.9222    0.6462 C   0  0  0  0  0  0  0  0  0  0  0  0
    1.9927   -0.9217    1.0714 C   0  0  0  0  0  0  0  0  0  0  0  0
    4.1227   -0.6028    0.6577 C   0  0  0  0  0  0  0  0  0  0  0  0
    5.2584   -0.1040   -0.0628 C   0  0  0  0  0  0  0  0  0  0  0  0
    4.2451   -1.3540    1.8077 C   0  0  0  0  0  0  0  0  0  0  0  0
    6.4585   -0.8059   -0.0466 C   0  0  0  0  0  0  0  0  0  0  0  0
    5.1635    1.0834   -0.7802 C   0  0  0  0  0  0  0  0  0  0  0  0
    7.5258   -0.2823   -0.7583 C   0  0  0  0  0  0  0  0  0  0  0  0
    6.2886    1.5226   -1.4592 C   0  0  0  0  0  0  0  0  0  0  0  0
   -2.2656    0.0473   -1.4711 H   0  0  0  0  0  0  0  0  0  0  0  0
   -1.7990   -1.0546    1.2142 H   0  0  0  0  0  0  0  0  0  0  0  0
   -3.0739   -2.0507   -2.2613 H   0  0  0  0  0  0  0  0  0  0  0  0
   -3.7296    1.8867   -2.0662 H   0  0  0  0  0  0  0  0  0  0  0  0
   -4.8437   -0.2470    1.2475 H   0  0  0  0  0  0  0  0  0  0  0  0
   -2.5770    1.1257    2.0296 H   0  0  0  0  0  0  0  0  0  0  0  0
   -4.9460   -3.6579   -2.3521 H   0  0  0  0  0  0  0  0  0  0  0  0
   -4.4336    4.1641   -1.4258 H   0  0  0  0  0  0  0  0  0  0  0  0
   -6.6924   -1.8408    1.1281 H   0  0  0  0  0  0  0  0  0  0  0  0
   -3.2748    3.3944    2.6398 H   0  0  0  0  0  0  0  0  0  0  0  0
   -6.7585   -3.5577   -0.6610 H   0  0  0  0  0  0  0  0  0  0  0  0
   -4.2085    4.9245    0.9250 H   0  0  0  0  0  0  0  0  0  0  0  0
    0.1294   -1.4238    1.7722 H   0  0  0  0  0  0  0  0  0  0  0  0
    5.1301   -1.6703    2.3422 H   0  0  0  0  0  0  0  0  0  0  0  0
    6.5887   -1.7451    0.4806 H   0  0  0  0  0  0  0  0  0  0  0  0
    4.2492    1.6670   -0.8180 H   0  0  0  0  0  0  0  0  0  0  0  0
    8.4827   -0.7934   -0.7813 H   0  0  0  0  0  0  0  0  0  0  0  0
    6.2672    2.4434   -2.0328 H   0  0  0  0  0  0  0  0  0  0  0  0
  1 21  1  0  0  0  0
  1 24  1  0  0  0  0
  2 14  2  0  0  0  0
  3  7  1  0  0  0  0
  3 14  1  0  0  0  0
  3 30  1  0  0  0  0
  4 14  1  0  0  0  0
  4 21  1  0  0  0  0
  4 41  1  0  0  0  0
  5 21  2  0  0  0  0
  5 22  1  0  0  0  0
  6 27  2  0  0  0  0
  6 28  1  0  0  0  0
  7  8  1  0  0  0  0
  7  9  1  0  0  0  0
  7 29  1  0  0  0  0
  8 10  2  0  0  0  0
  8 12  1  0  0  0  0
  9 11  2  0  0  0  0
  9 13  1  0  0  0  0
 10 15  1  0  0  0  0
 10 31  1  0  0  0  0
 11 16  1  0  0  0  0
 11 32  1  0  0  0  0
 12 17  2  0  0  0  0
 12 33  1  0  0  0  0
 13 18  2  0  0  0  0
 13 34  1  0  0  0  0
 15 19  2  0  0  0  0
 15 35  1  0  0  0  0
 16 20  2  0  0  0  0
 16 36  1  0  0  0  0
 17 19  1  0  0  0  0
 17 37  1  0  0  0  0
 18 20  1  0  0  0  0
 18 38  1  0  0  0  0
 19 39  1  0  0  0  0
 20 40  1  0  0  0  0
 22 23  1  0  0  0  0
 22 24  2  0  0  0  0
 23 25  2  0  0  0  0
 23 26  1  0  0  0  0
 24 42  1  0  0  0  0
 25 27  1  0  0  0  0
 25 43  1  0  0  0  0
 26 28  2  0  0  0  0
 26 44  1  0  0  0  0
 27 45  1  0  0  0  0
 28 46  1  0  0  0  0
M  END
> <PUBCHEM_COMPOUND_CID>
87405235

> <PUBCHEM_CONFORMER_RMSD>
0.8

> <PUBCHEM_CONFORMER_DIVERSEORDER>
1
54
13
22
41
15
42
30
47
62
55
9
53
60
37
40
21
4
66
27
64
46
17
52
16
63
48
36
32
23
33
57
24
45
31
28
6
44
56
59
3
5
12
18
39
11
61
38
43
29
14
25
35
58
51
50
8
65
7
34
49
10
19
20
26
2

> <PUBCHEM_MMFF94_PARTIAL_CHARGES>
45
1 -0.08
10 -0.15
11 -0.15
12 -0.15
13 -0.15
14 0.69
15 -0.15
16 -0.15
17 -0.15
18 -0.15
19 -0.15
2 -0.57
20 -0.15
21 0.44
22 0.17
23 0.05
24 -0.11
25 -0.15
26 -0.15
27 0.16
28 0.16
3 -0.73
30 0.37
31 0.15
32 0.15
33 0.15
34 0.15
35 0.15
36 0.15
37 0.15
38 0.15
39 0.15
4 -0.49
40 0.15
41 0.37
42 0.15
43 0.15
44 0.15
45 0.15
46 0.15
5 -0.57
6 -0.62
7 0.59
8 -0.14
9 -0.14

> <PUBCHEM_EFFECTIVE_ROTOR_COUNT>
7

> <PUBCHEM_PHARMACOPHORE_FEATURES>
8
1 2 acceptor
1 3 donor
1 4 donor
1 6 acceptor
5 1 5 21 22 24 rings
6 6 23 25 26 27 28 rings
6 8 10 12 15 17 19 rings
6 9 11 13 16 18 20 rings

> <PUBCHEM_HEAVY_ATOM_COUNT>
28

> <PUBCHEM_ATOM_DEF_STEREO_COUNT>
0

> <PUBCHEM_ATOM_UDEF_STEREO_COUNT>
0

> <PUBCHEM_BOND_DEF_STEREO_COUNT>
0

> <PUBCHEM_BOND_UDEF_STEREO_COUNT>
0

> <PUBCHEM_ISOTOPIC_ATOM_COUNT>
0

> <PUBCHEM_COMPONENT_COUNT>
1

> <PUBCHEM_CACTVS_TAUTO_COUNT>
5

> <PUBCHEM_CONFORMER_ID>
0535B2B300000001

> <PUBCHEM_MMFF94_ENERGY>
71.4539

> <PUBCHEM_FEATURE_SELFOVERLAP>
40.653

> <PUBCHEM_SHAPE_FINGERPRINT>
10595046 47 18334010592932726970
10670039 82 18341893000160550638
10912923 1 18114174199378121402
11056379 131 18343578543175694927
11101153 10 18261959664225444613
11315621 246 18130223873546019247
11524674 6 15554451837818596551
11545043 162 17632571643828798914
12107698 1 18341897445515109748
12788726 201 18410002261250459051
13540713 5 18115574938194700907
13631057 29 18410570708692992483
13673619 4 17417531431653808179
13690498 29 18272086127888694407
13782708 43 16988837294171301846
14068700 675 18337383959236605053
14118638 360 18334009489142060130
14202776 33 18411139134339345925
14347332 77 18342175613319562109
14556957 393 18334015029765807021
14767858 380 18114459063036821654
14784336 7 18045508774436763773
14856354 85 18271810184999498143
15183329 4 17967817150638845734
15352257 5 17275110560905509598
1577012 14 18187367593829007800
15876981 60 18409454682436526837
16991971 28 18126560357243843751
16992828 155 17896879850848648437
17844677 252 18273493490103818720
19427546 20 18409164394808825165
21120745 212 18410574007476055417
21130935 74 9871744681839044732
21304303 172 18059857295133678155
21424621 283 12469455208292387775
21796203 349 17903382603898225427
2297311 6 18131069368117880859
2303208 19 16988559126208508930
23081809 10 18040995112491795994
249057 25 18040981922478503306
255183 451 17768799112077268519
2747138 104 18337391672539374771
2838139 119 18113907057229581328
3552219 110 18188501271789956029
4258327 124 18187926111086718173
4409770 3 18340189806143142469
46194498 28 17489024980943498152
497634 4 18187640293496573215
504579 68 18334847307932228998
5219985 9 18338794637451590711
57634706 229 17486790588553597721
7237137 82 18411978061932930129

> <PUBCHEM_SHAPE_MULTIPOLES>
554.28
19.87
3.78
1.72
29.25
2.89
0.48
-2.6
-7
-9.38
0.02
0.98
-0.32
-4

> <PUBCHEM_SHAPE_SELFOVERLAP>
1200.776

> <PUBCHEM_SHAPE_VOLUME>
303.4

> <PUBCHEM_COORDINATE_TYPE>
2
5
10

$$$$
87410067
  -OEChem-05102415133D

 40 43  0     0  0  0  0  0  0999 V2000
    1.6433    2.5945   -0.2008 S   0  0  0  0  0  0  0  0  0  0  0  0
   -0.0934   -1.7098   -0.1674 O   0  0  0  0  0  0  0  0  0  0  0  0
   -2.1362   -0.6301   -0.3471 N   0  0  0  0  0  0  0  0  0  0  0  0
   -0.1328    0.6142   -0.2448 N   0  0  0  0  0  0  0  0  0  0  0  0
    2.2565    0.0860   -0.0835 N   0  0  0  0  0  0  0  0  0  0  0  0
    7.1926   -1.1117    0.2519 N   0  0  0  0  0  0  0  0  0  0  0  0
   -2.8562   -1.8932   -0.5214 C   0  0  0  0  0  0  0  0  0  0  0  0
   -4.0313   -1.9902    0.4426 C   0  0  0  0  0  0  0  0  0  0  0  0
   -2.9419    0.6006   -0.4367 C   0  0  0  0  0  0  0  0  0  0  0  0
   -4.9356   -0.7973    0.2987 C   0  0  0  0  0  0  0  0  0  0  0  0
   -4.4083    0.4354   -0.1202 C   0  0  0  0  0  0  0  0  0  0  0  0
   -6.2951   -0.8990    0.6221 C   0  0  0  0  0  0  0  0  0  0  0  0
   -5.2601    1.5439   -0.2318 C   0  0  0  0  0  0  0  0  0  0  0  0
   -0.7232   -0.6523   -0.2396 C   0  0  0  0  0  0  0  0  0  0  0  0
   -7.1320    0.2104    0.5061 C   0  0  0  0  0  0  0  0  0  0  0  0
   -6.6156    1.4302    0.0769 C   0  0  0  0  0  0  0  0  0  0  0  0
    1.2482    0.9248   -0.1715 C   0  0  0  0  0  0  0  0  0  0  0  0
    3.4338    0.8067   -0.0351 C   0  0  0  0  0  0  0  0  0  0  0  0
    4.7085    0.1561    0.0622 C   0  0  0  0  0  0  0  0  0  0  0  0
    3.3031    2.1787   -0.0870 C   0  0  0  0  0  0  0  0  0  0  0  0
    5.7663    0.7864    0.7081 C   0  0  0  0  0  0  0  0  0  0  0  0
    4.8912   -1.1074   -0.4888 C   0  0  0  0  0  0  0  0  0  0  0  0
    6.9771    0.1161    0.7754 C   0  0  0  0  0  0  0  0  0  0  0  0
    6.1411   -1.6930   -0.3681 C   0  0  0  0  0  0  0  0  0  0  0  0
   -2.1903   -2.7494   -0.3753 H   0  0  0  0  0  0  0  0  0  0  0  0
   -3.2002   -1.9244   -1.5631 H   0  0  0  0  0  0  0  0  0  0  0  0
   -4.5841   -2.9145    0.2386 H   0  0  0  0  0  0  0  0  0  0  0  0
   -3.6706   -2.0307    1.4775 H   0  0  0  0  0  0  0  0  0  0  0  0
   -2.8246    0.9818   -1.4578 H   0  0  0  0  0  0  0  0  0  0  0  0
   -2.5399    1.3364    0.2676 H   0  0  0  0  0  0  0  0  0  0  0  0
   -6.7096   -1.8442    0.9630 H   0  0  0  0  0  0  0  0  0  0  0  0
   -4.8680    2.5047   -0.5564 H   0  0  0  0  0  0  0  0  0  0  0  0
   -8.1861    0.1232    0.7528 H   0  0  0  0  0  0  0  0  0  0  0  0
   -7.2667    2.2949   -0.0121 H   0  0  0  0  0  0  0  0  0  0  0  0
   -0.7109    1.4407   -0.3420 H   0  0  0  0  0  0  0  0  0  0  0  0
    4.0595    2.9513   -0.0778 H   0  0  0  0  0  0  0  0  0  0  0  0
    5.6802    1.7636    1.1714 H   0  0  0  0  0  0  0  0  0  0  0  0
    4.0962   -1.6355   -1.0055 H   0  0  0  0  0  0  0  0  0  0  0  0
    7.8326    0.5624    1.2718 H   0  0  0  0  0  0  0  0  0  0  0  0
    6.3357   -2.6771   -0.7816 H   0  0  0  0  0  0  0  0  0  0  0  0
  1 17  1  0  0  0  0
  1 20  1  0  0  0  0
  2 14  2  0  0  0  0
  3  7  1  0  0  0  0
  3  9  1  0  0  0  0
  3 14  1  0  0  0  0
  4 14  1  0  0  0  0
  4 17  1  0  0  0  0
  4 35  1  0  0  0  0
  5 17  2  0  0  0  0
  5 18  1  0  0  0  0
  6 23  2  0  0  0  0
  6 24  1  0  0  0  0
  7  8  1  0  0  0  0
  7 25  1  0  0  0  0
  7 26  1  0  0  0  0
  8 10  1  0  0  0  0
  8 27  1  0  0  0  0
  8 28  1  0  0  0  0
  9 11  1  0  0  0  0
  9 29  1  0  0  0  0
  9 30  1  0  0  0  0
 10 11  1  0  0  0  0
 10 12  2  0  0  0  0
 11 13  2  0  0  0  0
 12 15  1  0  0  0  0
 12 31  1  0  0  0  0
 13 16  1  0  0  0  0
 13 32  1  0  0  0  0
 15 16  2  0  0  0  0
 15 33  1  0  0  0  0
 16 34  1  0  0  0  0
 18 19  1  0  0  0  0
 18 20  2  0  0  0  0
 19 21  2  0  0  0  0
 19 22  1  0  0  0  0
 20 36  1  0  0  0  0
 21 23  1  0  0  0  0
 21 37  1  0  0  0  0
 22 24  2  0  0  0  0
 22 38  1  0  0  0  0
 23 39  1  0  0  0  0
 24 40  1  0  0  0  0
M  END
> <PUBCHEM_COMPOUND_CID>
87410067

> <PUBCHEM_CONFORMER_RMSD>
0.8

> <PUBCHEM_CONFORMER_DIVERSEORDER>
1
18
22
26
3
19
15
16
12
24
21
11
23
4
9
7
10
13
2
8
25
20
17
5
6
14

> <PUBCHEM_MMFF94_PARTIAL_CHARGES>
34
1 -0.08
10 -0.14
11 -0.14
12 -0.15
13 -0.15
14 0.69
15 -0.15
16 -0.15
17 0.44
18 0.17
19 0.05
2 -0.57
20 -0.11
21 -0.15
22 -0.15
23 0.16
24 0.16
3 -0.66
31 0.15
32 0.15
33 0.15
34 0.15
35 0.37
36 0.15
37 0.15
38 0.15
39 0.15
4 -0.49
40 0.15
5 -0.57
6 -0.62
7 0.3
8 0.14
9 0.44

> <PUBCHEM_EFFECTIVE_ROTOR_COUNT>
4.8

> <PUBCHEM_PHARMACOPHORE_FEATURES>
7
1 2 acceptor
1 4 donor
1 6 acceptor
5 1 5 17 18 20 rings
6 10 11 12 13 15 16 rings
6 3 7 8 9 10 11 rings
6 6 19 21 22 23 24 rings

> <PUBCHEM_HEAVY_ATOM_COUNT>
24

> <PUBCHEM_ATOM_DEF_STEREO_COUNT>
0

> <PUBCHEM_ATOM_UDEF_STEREO_COUNT>
0

> <PUBCHEM_BOND_DEF_STEREO_COUNT>
0

> <PUBCHEM_BOND_UDEF_STEREO_COUNT>
0

> <PUBCHEM_ISOTOPIC_ATOM_COUNT>
0

> <PUBCHEM_COMPONENT_COUNT>
1

> <PUBCHEM_CACTVS_TAUTO_COUNT>
3

> <PUBCHEM_CONFORMER_ID>
0535C59300000001

> <PUBCHEM_MMFF94_ENERGY>
58.9064

> <PUBCHEM_FEATURE_SELFOVERLAP>
35.545

> <PUBCHEM_SHAPE_FINGERPRINT>
100830 39 18337390440111009725
10087517 78 14907910349196515851
10299344 5 17676209069886180338
10319926 262 18337666520565832563
10638233 991 15502384430245962454
11089746 13 16702299070482396337
11456790 92 18129957745352231353
11524674 6 17775284971822972367
11719270 70 18131071524212725342
12107183 9 18412263938828866169
12166972 35 18412829113739631017
12236239 1 18260548947973008900
12516196 113 18342737416933290712
13533116 47 13757807979671391300
13685833 64 18407478860473195152
14123256 10 9079114462234132536
14251764 18 18409166640596549684
14341114 176 18335143124232216277
14347424 109 18272646862330321640
14420673 8 18334016090416915339
14840074 17 12757148004803843049
14856354 85 15719400533916013587
14933364 13 18408605867991119648
15021287 119 17822297894240428117
15142383 8 18408881824378077180
15183329 4 18342186556811654244
15348495 7 18271240646222593104
15352257 5 15864072069894508473
15461852 350 16773511165790580221
15537594 2 15213292062668724153
15799311 1 16298387950437694210
15849732 13 18342738511838513716
17844677 252 18336553806082260437
19141452 34 18271519888396779374
19315958 150 17846495951167106202
20281389 69 18411419527142722097
21033648 29 17845637262054479434
21130935 74 18272088335439243618
21150785 3 11458425747626020625
21267235 1 18410295783936787268
21279426 13 18338798892608562550
21315759 40 15864068767291575408
21315763 28 18410575128435782139
21365058 27 14923950032900821913
21591340 7 18131068226342038073
21774942 28 16557918810221709481
22224240 67 11167936953506442956
23035841 295 15864070979226022067
23424782 7 8934990482339447589
23522609 53 17750541540397395332
23559900 14 18341325682051485185
24771293 8 18198045075864241592
2838139 119 18201716263352787837
3004659 81 18187087261266105876
3103668 31 17969779679109074052
335352 9 18410855468733979636
38695281 34 18202002118542480871
4073 2 18041846241549509026
4325135 7 9511460026298196121
5104073 3 18266176312855683617
5207 217 9799689303043859380
5385378 56 18271253707835792579
559249 180 18410572894746930535
59755656 215 18336548222397896551
59755656 520 17313103077359806907
7226269 152 17917993871541396961
9965369 4 18412263922039432793
9995097 60 18413952784420790127
9996256 80 18411699928699355679

> <PUBCHEM_SHAPE_MULTIPOLES>
471.96
21.49
2.21
0.75
3.01
0.36
0.04
-2.46
4.02
0.2
-0.17
0.1
-0.03
0.55

> <PUBCHEM_SHAPE_SELFOVERLAP>
1020.873

> <PUBCHEM_SHAPE_VOLUME>
259.5

> <PUBCHEM_COORDINATE_TYPE>
2
5
10

$$$$
87408412
  -OEChem-05102415133D

 40 43  0     1  0  0  0  0  0999 V2000
    1.9704   -2.7924   -0.2071 S   0  0  0  0  0  0  0  0  0  0  0  0
   -0.2637    1.3186   -0.0277 O   0  0  0  0  0  0  0  0  0  0  0  0
   -2.1023   -0.0741   -0.1936 N   0  0  0  0  0  0  0  0  0  0  0  0
   -0.0009   -1.0098   -0.1696 N   0  0  0  0  0  0  0  0  0  0  0  0
    2.3194   -0.2375   -0.0249 N   0  0  0  0  0  0  0  0  0  0  0  0
    7.1075    1.4627    0.2820 N   0  0  0  0  0  0  0  0  0  0  0  0
   -3.1021    0.9597   -0.1664 C   0  0  1  0  0  0  0  0  0  0  0  0
   -3.5020    1.4199   -1.5814 C   0  0  0  0  0  0  0  0  0  0  0  0
   -4.6834    0.5364   -2.0179 C   0  0  0  0  0  0  0  0  0  0  0  0
   -4.4124    0.4496    0.3523 C   0  0  0  0  0  0  0  0  0  0  0  0
   -5.3100    0.2160   -0.6976 C   0  0  0  0  0  0  0  0  0  0  0  0
   -4.7683    0.1877    1.6656 C   0  0  0  0  0  0  0  0  0  0  0  0
   -6.5756   -0.2916   -0.4566 C   0  0  0  0  0  0  0  0  0  0  0  0
   -6.0473   -0.3127    1.9185 C   0  0  0  0  0  0  0  0  0  0  0  0
   -6.9440   -0.5512    0.8651 C   0  0  0  0  0  0  0  0  0  0  0  0
   -0.7261    0.1840   -0.1208 C   0  0  0  0  0  0  0  0  0  0  0  0
    1.4031   -1.1750   -0.1236 C   0  0  0  0  0  0  0  0  0  0  0  0
    3.5663   -0.8315   -0.0138 C   0  0  0  0  0  0  0  0  0  0  0  0
    4.7672   -0.0535    0.0864 C   0  0  0  0  0  0  0  0  0  0  0  0
    3.5792   -2.2077   -0.1038 C   0  0  0  0  0  0  0  0  0  0  0  0
    5.9442   -0.5078   -0.4983 C   0  0  0  0  0  0  0  0  0  0  0  0
    4.7591    1.1580    0.7689 C   0  0  0  0  0  0  0  0  0  0  0  0
    7.0768    0.2804   -0.3731 C   0  0  0  0  0  0  0  0  0  0  0  0
    5.9448    1.8717    0.8374 C   0  0  0  0  0  0  0  0  0  0  0  0
   -2.7421    1.8127    0.4192 H   0  0  0  0  0  0  0  0  0  0  0  0
   -2.6779    1.3895   -2.3019 H   0  0  0  0  0  0  0  0  0  0  0  0
   -3.8492    2.4619   -1.5302 H   0  0  0  0  0  0  0  0  0  0  0  0
   -5.3612    1.0782   -2.6833 H   0  0  0  0  0  0  0  0  0  0  0  0
   -4.3337   -0.3811   -2.5022 H   0  0  0  0  0  0  0  0  0  0  0  0
   -2.4010   -1.0380   -0.3106 H   0  0  0  0  0  0  0  0  0  0  0  0
   -4.0742    0.3628    2.4806 H   0  0  0  0  0  0  0  0  0  0  0  0
   -7.2670   -0.4854   -1.2695 H   0  0  0  0  0  0  0  0  0  0  0  0
   -6.3510   -0.5249    2.9401 H   0  0  0  0  0  0  0  0  0  0  0  0
   -7.9329   -0.9463    1.0815 H   0  0  0  0  0  0  0  0  0  0  0  0
   -0.5222   -1.8786   -0.2473 H   0  0  0  0  0  0  0  0  0  0  0  0
    4.4115   -2.8979   -0.1036 H   0  0  0  0  0  0  0  0  0  0  0  0
    6.0087   -1.4357   -1.0568 H   0  0  0  0  0  0  0  0  0  0  0  0
    3.8659    1.5501    1.2444 H   0  0  0  0  0  0  0  0  0  0  0  0
    8.0192   -0.0269   -0.8145 H   0  0  0  0  0  0  0  0  0  0  0  0
    5.9917    2.8220    1.3590 H   0  0  0  0  0  0  0  0  0  0  0  0
  1 17  1  0  0  0  0
  1 20  1  0  0  0  0
  2 16  2  0  0  0  0
  3  7  1  0  0  0  0
  3 16  1  0  0  0  0
  3 30  1  0  0  0  0
  4 16  1  0  0  0  0
  4 17  1  0  0  0  0
  4 35  1  0  0  0  0
  5 17  2  0  0  0  0
  5 18  1  0  0  0  0
  6 23  2  0  0  0  0
  6 24  1  0  0  0  0
  7  8  1  0  0  0  0
  7 10  1  0  0  0  0
  7 25  1  0  0  0  0
  8  9  1  0  0  0  0
  8 26  1  0  0  0  0
  8 27  1  0  0  0  0
  9 11  1  0  0  0  0
  9 28  1  0  0  0  0
  9 29  1  0  0  0  0
 10 11  1  0  0  0  0
 10 12  2  0  0  0  0
 11 13  2  0  0  0  0
 12 14  1  0  0  0  0
 12 31  1  0  0  0  0
 13 15  1  0  0  0  0
 13 32  1  0  0  0  0
 14 15  2  0  0  0  0
 14 33  1  0  0  0  0
 15 34  1  0  0  0  0
 18 19  1  0  0  0  0
 18 20  2  0  0  0  0
 19 21  2  0  0  0  0
 19 22  1  0  0  0  0
 20 36  1  0  0  0  0
 21 23  1  0  0  0  0
 21 37  1  0  0  0  0
 22 24  2  0  0  0  0
 22 38  1  0  0  0  0
 23 39  1  0  0  0  0
 24 40  1  0  0  0  0
M  END
> <PUBCHEM_COMPOUND_CID>
87408412

> <PUBCHEM_CONFORMER_RMSD>
0.8

> <PUBCHEM_CONFORMER_DIVERSEORDER>
1
38
19
13
49
46
35
39
7
36
6
9
27
45
22
5
42
31
34
26
32
50
21
48
47
51
28
18
44
24
8
37
15
30
11
23
14
17
29
20
10
33
43
25
2
16
12
4
40
3
41

> <PUBCHEM_MMFF94_PARTIAL_CHARGES>
34
1 -0.08
10 -0.14
11 -0.14
12 -0.15
13 -0.15
14 -0.15
15 -0.15
16 0.69
17 0.44
18 0.17
19 0.05
2 -0.57
20 -0.11
21 -0.15
22 -0.15
23 0.16
24 0.16
3 -0.73
30 0.37
31 0.15
32 0.15
33 0.15
34 0.15
35 0.37
36 0.15
37 0.15
38 0.15
39 0.15
4 -0.49
40 0.15
5 -0.57
6 -0.62
7 0.44
9 0.14

> <PUBCHEM_EFFECTIVE_ROTOR_COUNT>
5.6

> <PUBCHEM_PHARMACOPHORE_FEATURES>
8
1 2 acceptor
1 3 donor
1 4 donor
1 6 acceptor
5 1 5 17 18 20 rings
5 7 8 9 10 11 rings
6 10 11 12 13 14 15 rings
6 6 19 21 22 23 24 rings

> <PUBCHEM_HEAVY_ATOM_COUNT>
24

> <PUBCHEM_ATOM_DEF_STEREO_COUNT>
1

> <PUBCHEM_ATOM_UDEF_STEREO_COUNT>
0

> <PUBCHEM_BOND_DEF_STEREO_COUNT>
0

> <PUBCHEM_BOND_UDEF_STEREO_COUNT>
0

> <PUBCHEM_ISOTOPIC_ATOM_COUNT>
0

> <PUBCHEM_COMPONENT_COUNT>
1

> <PUBCHEM_CACTVS_TAUTO_COUNT>
5

> <PUBCHEM_CONFORMER_ID>
0535BF1C00000001

> <PUBCHEM_MMFF94_ENERGY>
56.9706

> <PUBCHEM_FEATURE_SELFOVERLAP>
40.731

> <PUBCHEM_SHAPE_FINGERPRINT>
10 15 17894630387833709288
10299344 5 16989126456574514909
10591671 39 17968105205157275340
10638233 991 17561080319411445872
10670039 82 13973694888508882187
10835480 77 18261103020772563253
11315181 36 17775284981045324227
11646440 116 18410858772076143296
11724838 91 18260547861625767118
12236239 1 17275387594616302129
12596602 18 17917999347819975619
12730499 353 18410576163507426962
13073987 5 18336266730568208297
13533116 47 17604140416634818986
13914758 101 11963380839565274119
13955234 65 18341047403285225962
14068700 686 18115021879560991989
14251752 14 13901912193620293902
14461889 52 17748829622372740130
14528608 73 18201429277621345452
146900 427 18202844348680351770
14765038 42 18130517370653077755
14840074 17 17989201547238458221
14849402 71 17917149527847086960
14856354 85 16343417393272014589
14933364 13 14979955878106734699
15142383 8 12031789145936360010
15183329 4 11240006641460217607
15419008 47 18040994050897246853
15461852 350 15502382222395582963
15685185 35 17843118375589934240
1768 4 18340488984363806120
17844677 252 18270121193219994973
17857418 61 13190340166603083624
19303781 99 16880771936218664427
19377110 9 17988638554155989859
19489759 90 15936411126662612605
20567600 234 17676211307674950932
21315764 119 14261362353367249700
21365058 27 17346885559001251471
21521721 280 18272652380983209514
21623969 137 18407762529624403602
21772528 278 18202001066138031870
220451 1 16702299035932962015
22149856 69 18190199931160183337
22224240 67 18335702767018569866
23035841 295 15913608363160924279
23081809 10 17060331899052223062
23522609 53 17060073552511227737
2747138 104 18334306374160644769
32027 91 16446698724709721547
335352 9 18342460336483551710
34797466 226 17846502530439559332
3545911 37 18409167705954219286
4073 2 17968381135278458907
4280585 95 16008751334112500135
4325135 7 18410011039857091831
4340502 62 17676205762877777746
437795 51 18271807959999891944
5104073 3 18116149965627469193
53794403 172 18265894855861364052
54076057 127 18059867147045733598
542803 24 16917347021962114207
5758199 1 18202566193913690914
59682541 35 18261397792693261035

> <PUBCHEM_SHAPE_MULTIPOLES>
471.96
21.83
1.87
1.32
3.86
0.87
-0.02
-4.95
-3.14
2.94
0.06
-2.71
-0.28
1.66

> <PUBCHEM_SHAPE_SELFOVERLAP>
1025.39

> <PUBCHEM_SHAPE_VOLUME>
259.3

> <PUBCHEM_COORDINATE_TYPE>
2
5
10

$$$$
87406428
  -OEChem-05102415133D

 41 43  0     0  0  0  0  0  0999 V2000
   -2.3298   -2.9781   -1.0050 S   0  0  0  0  0  0  0  0  0  0  0  0
    0.6668   -0.1674    1.2408 O   0  0  0  0  0  0  0  0  0  0  0  0
    2.0752   -1.9635    0.8708 N   0  0  0  0  0  0  0  0  0  0  0  0
    4.8417    2.9035   -0.2941 N   0  0  0  0  0  0  0  0  0  0  0  0
   -0.0934   -2.0847    0.1199 N   0  0  0  0  0  0  0  0  0  0  0  0
   -2.0910   -0.6670    0.1281 N   0  0  0  0  0  0  0  0  0  0  0  0
   -6.1895    2.3513    0.1932 N   0  0  0  0  0  0  0  0  0  0  0  0
    4.0845   -0.6247    0.5475 C   0  0  0  0  0  0  0  0  0  0  0  0
    3.2400   -1.3980    1.5030 C   0  0  0  0  0  0  0  0  0  0  0  0
    4.0681    0.7699    0.5734 C   0  0  0  0  0  0  0  0  0  0  0  0
    4.8575    1.4936   -0.3204 C   0  0  0  0  0  0  0  0  0  0  0  0
    4.8904   -1.2957   -0.3725 C   0  0  0  0  0  0  0  0  0  0  0  0
    5.6635    0.8226   -1.2402 C   0  0  0  0  0  0  0  0  0  0  0  0
    5.6796   -0.5721   -1.2665 C   0  0  0  0  0  0  0  0  0  0  0  0
    0.8482   -1.2934    0.7838 C   0  0  0  0  0  0  0  0  0  0  0  0
   -3.3878   -0.7731   -0.3356 C   0  0  0  0  0  0  0  0  0  0  0  0
   -4.3379    0.2865   -0.1562 C   0  0  0  0  0  0  0  0  0  0  0  0
   -1.4420   -1.7709   -0.1688 C   0  0  0  0  0  0  0  0  0  0  0  0
   -3.7041   -1.9527   -0.9763 C   0  0  0  0  0  0  0  0  0  0  0  0
    3.6953    3.6602    0.1044 C   0  0  0  0  0  0  0  0  0  0  0  0
   -5.6924   -0.0037   -0.0348 C   0  0  0  0  0  0  0  0  0  0  0  0
   -3.9081    1.6078   -0.1030 C   0  0  0  0  0  0  0  0  0  0  0  0
   -6.5695    1.0551    0.1367 C   0  0  0  0  0  0  0  0  0  0  0  0
   -4.8652    2.5945    0.0717 C   0  0  0  0  0  0  0  0  0  0  0  0
    3.8182   -2.2264    1.9285 H   0  0  0  0  0  0  0  0  0  0  0  0
    2.9228   -0.7721    2.3453 H   0  0  0  0  0  0  0  0  0  0  0  0
    3.4399    1.2770    1.3009 H   0  0  0  0  0  0  0  0  0  0  0  0
    4.9116   -2.3819   -0.4024 H   0  0  0  0  0  0  0  0  0  0  0  0
    2.1562   -2.8842    0.4504 H   0  0  0  0  0  0  0  0  0  0  0  0
    6.2831    1.3744   -1.9425 H   0  0  0  0  0  0  0  0  0  0  0  0
    6.3069   -1.0945   -1.9829 H   0  0  0  0  0  0  0  0  0  0  0  0
    5.5288    3.3690   -0.8784 H   0  0  0  0  0  0  0  0  0  0  0  0
    0.2018   -3.0013   -0.2046 H   0  0  0  0  0  0  0  0  0  0  0  0
   -4.6315   -2.2706   -1.4323 H   0  0  0  0  0  0  0  0  0  0  0  0
    3.8580    4.7198   -0.1183 H   0  0  0  0  0  0  0  0  0  0  0  0
    3.5159    3.5806    1.1811 H   0  0  0  0  0  0  0  0  0  0  0  0
    2.7970    3.3432   -0.4359 H   0  0  0  0  0  0  0  0  0  0  0  0
   -6.0858   -1.0146   -0.0520 H   0  0  0  0  0  0  0  0  0  0  0  0
   -2.8624    1.8821   -0.1974 H   0  0  0  0  0  0  0  0  0  0  0  0
   -7.6357    0.8822    0.2405 H   0  0  0  0  0  0  0  0  0  0  0  0
   -4.5820    3.6409    0.1187 H   0  0  0  0  0  0  0  0  0  0  0  0
  1 18  1  0  0  0  0
  1 19  1  0  0  0  0
  2 15  2  0  0  0  0
  3  9  1  0  0  0  0
  3 15  1  0  0  0  0
  3 29  1  0  0  0  0
  4 11  1  0  0  0  0
  4 20  1  0  0  0  0
  4 32  1  0  0  0  0
  5 15  1  0  0  0  0
  5 18  1  0  0  0  0
  5 33  1  0  0  0  0
  6 16  1  0  0  0  0
  6 18  2  0  0  0  0
  7 23  2  0  0  0  0
  7 24  1  0  0  0  0
  8  9  1  0  0  0  0
  8 10  2  0  0  0  0
  8 12  1  0  0  0  0
  9 25  1  0  0  0  0
  9 26  1  0  0  0  0
 10 11  1  0  0  0  0
 10 27  1  0  0  0  0
 11 13  2  0  0  0  0
 12 14  2  0  0  0  0
 12 28  1  0  0  0  0
 13 14  1  0  0  0  0
 13 30  1  0  0  0  0
 14 31  1  0  0  0  0
 16 17  1  0  0  0  0
 16 19  2  0  0  0  0
 17 21  2  0  0  0  0
 17 22  1  0  0  0  0
 19 34  1  0  0  0  0
 20 35  1  0  0  0  0
 20 36  1  0  0  0  0
 20 37  1  0  0  0  0
 21 23  1  0  0  0  0
 21 38  1  0  0  0  0
 22 24  2  0  0  0  0
 22 39  1  0  0  0  0
 23 40  1  0  0  0  0
 24 41  1  0  0  0  0
M  END
> <PUBCHEM_COMPOUND_CID>
87406428

> <PUBCHEM_CONFORMER_RMSD>
0.8

> <PUBCHEM_CONFORMER_DIVERSEORDER>
1
43
95
206
204
241
250
18
175
116
20
9
146
127
114
258
122
87
134
183
178
51
194
256
218
118
113
30
69
40
153
3
231
121
215
37
128
237
210
52
106
93
202
203
74
176
225
83
260
76
157
168
171
169
38
140
104
15
165
259
186
60
192
141
211
32
154
143
29
198
170
124
63
226
222
39
77
187
144
240
138
119
216
129
220
33
100
244
57
262
97
21
117
239
42
23
249
158
19
96
197
172
190
247
123
27
59
251
161
70
151
34
235
132
149
137
86
179
238
214
91
2
189
84
49
98
255
184
94
182
101
58
166
47
99
245
163
28
41
46
24
72
177
229
65
142
156
92
155
160
242
261
22
209
79
150
102
196
54
88
145
67
254
207
25
64
115
62
253
89
73
246
167
66
85
103
193
213
205
26
120
16
136
208
36
230
125
108
126
12
219
107
105
109
48
223
55
185
199
227
45
82
201
4
212
90
221
257
234
233
5
68
130
217
11
17
236
14
248
35
263
78
8
224
133
81
56
228
135
152
31
148
243
232
191
200
252
188
195
7
112
147
44
71
80
13
111
10
173
110
75
50
174
180
6
159
131
61
139
53
164
181
162

> <PUBCHEM_MMFF94_PARTIAL_CHARGES>
36
1 -0.08
10 -0.15
11 0.1
12 -0.15
13 -0.15
14 -0.15
15 0.69
16 0.17
17 0.05
18 0.44
19 -0.11
2 -0.57
20 0.37
21 -0.15
22 -0.15
23 0.16
24 0.16
27 0.15
28 0.15
29 0.37
3 -0.73
30 0.15
31 0.15
32 0.4
33 0.37
34 0.15
38 0.15
39 0.15
4 -0.87
40 0.15
41 0.15
5 -0.49
6 -0.57
7 -0.62
8 -0.14
9 0.44

> <PUBCHEM_EFFECTIVE_ROTOR_COUNT>
7

> <PUBCHEM_PHARMACOPHORE_FEATURES>
9
1 2 acceptor
1 3 donor
1 4 cation
1 4 donor
1 5 donor
1 7 acceptor
5 1 6 16 18 19 rings
6 7 17 21 22 23 24 rings
6 8 10 11 12 13 14 rings

> <PUBCHEM_HEAVY_ATOM_COUNT>
24

> <PUBCHEM_ATOM_DEF_STEREO_COUNT>
0

> <PUBCHEM_ATOM_UDEF_STEREO_COUNT>
0

> <PUBCHEM_BOND_DEF_STEREO_COUNT>
0

> <PUBCHEM_BOND_UDEF_STEREO_COUNT>
0

> <PUBCHEM_ISOTOPIC_ATOM_COUNT>
0

> <PUBCHEM_COMPONENT_COUNT>
1

> <PUBCHEM_CACTVS_TAUTO_COUNT>
5

> <PUBCHEM_CONFORMER_ID>
0535B75C00000001

> <PUBCHEM_MMFF94_ENERGY>
64.0611

> <PUBCHEM_FEATURE_SELFOVERLAP>
45.723

> <PUBCHEM_SHAPE_FINGERPRINT>
10378564 45 18131635561088082910
10638233 991 18409162229886611207
10670039 82 17916310445940101760
11070050 100 16370721522311087808
11101153 10 18266174110333792063
11273773 38 18340485539615632673
11991303 11 17561077042953104759
12390115 104 18059859420752495867
12596602 18 17530965744552529963
12616971 3 18114447994890360498
13885169 86 18410299112104269449
13914758 101 12247687054686476963
14187579 7 18196649816033371064
14251751 18 8286197245190302983
14251757 5 18201720678035485515
14429114 114 18122902289951763400
14528608 73 18408320008032238762
1454969 45 18411694380118405191
14790565 3 18410573959803640625
14840074 17 17967536753023986157
14848178 5 10303813172360221674
15001296 14 18334572490192380129
15142526 21 18040996262857495939
15183329 4 17775291534173823122
15188451 53 9655577383501627206
15210252 30 18041563645977146244
15575132 122 18188487961454509429
1768 23 17986691298147772137
17844677 252 18338803419762996698
17959699 21 18411138069456423154
18335252 114 18337103463333349638
21315764 119 17988932132804331758
22061861 79 15554724473446317967
22122407 14 18334584511979330865
23559900 14 17917991685651235586
245318 6 17823432649931985621
249057 3 18341896243357082310
2838139 119 18410288078227433749
3004659 81 18273213076316709642
312425 83 18129950117110537438
3472631 163 18412826888967183631
38570 142 18187374198766477354
393628 179 17478599570561563968
5104073 3 17676479592665034898
59682541 52 15840986655407550311
633830 44 18336256929590592910
7808743 9 18412538817316422739

> <PUBCHEM_SHAPE_MULTIPOLES>
466.98
17.82
3.62
1.08
4
1.94
-0.03
10.94
3.12
0.14
0.35
-1.14
-0.43
-1.42

> <PUBCHEM_SHAPE_SELFOVERLAP>
990.522

> <PUBCHEM_SHAPE_VOLUME>
262.7

> <PUBCHEM_COORDINATE_TYPE>
2
5
10

$$$$
87405878
  -OEChem-05102415133D

 35 37  0     0  0  0  0  0  0999 V2000
   -1.6815    2.8692    0.9588 S   0  0  0  0  0  0  0  0  0  0  0  0
    1.0504   -0.2423   -1.2273 O   0  0  0  0  0  0  0  0  0  0  0  0
    2.6139    1.4244   -0.8788 N   0  0  0  0  0  0  0  0  0  0  0  0
    0.4230    1.7494   -0.1323 N   0  0  0  0  0  0  0  0  0  0  0  0
   -1.6531    0.5273   -0.1353 N   0  0  0  0  0  0  0  0  0  0  0  0
    5.0224   -2.2798    0.3704 N   0  0  0  0  0  0  0  0  0  0  0  0
   -6.0126   -2.1027   -0.1696 N   0  0  0  0  0  0  0  0  0  0  0  0
    3.7266    0.7419   -1.4981 C   0  0  0  0  0  0  0  0  0  0  0  0
    4.4927   -0.0925   -0.5127 C   0  0  0  0  0  0  0  0  0  0  0  0
   -2.9360    0.7600    0.3208 C   0  0  0  0  0  0  0  0  0  0  0  0
   -3.9799   -0.2114    0.1544 C   0  0  0  0  0  0  0  0  0  0  0  0
   -0.9061    1.5717    0.1465 C   0  0  0  0  0  0  0  0  0  0  0  0
    1.3331    0.8698   -0.7880 C   0  0  0  0  0  0  0  0  0  0  0  0
    5.3532    0.4956    0.4078 C   0  0  0  0  0  0  0  0  0  0  0  0
   -3.1444    1.9742    0.9407 C   0  0  0  0  0  0  0  0  0  0  0  0
    4.3637   -1.4719   -0.4904 C   0  0  0  0  0  0  0  0  0  0  0  0
   -5.3016    0.2001    0.0222 C   0  0  0  0  0  0  0  0  0  0  0  0
   -3.6734   -1.5674    0.1247 C   0  0  0  0  0  0  0  0  0  0  0  0
    6.0484   -0.3024    1.3096 C   0  0  0  0  0  0  0  0  0  0  0  0
    5.8498   -1.6724    1.2504 C   0  0  0  0  0  0  0  0  0  0  0  0
   -6.2719   -0.7762   -0.1360 C   0  0  0  0  0  0  0  0  0  0  0  0
   -4.7167   -2.4646   -0.0380 C   0  0  0  0  0  0  0  0  0  0  0  0
    4.3835    1.5042   -1.9323 H   0  0  0  0  0  0  0  0  0  0  0  0
    3.3576    0.1256   -2.3260 H   0  0  0  0  0  0  0  0  0  0  0  0
    2.7764    2.3406   -0.4724 H   0  0  0  0  0  0  0  0  0  0  0  0
    0.8033    2.6398    0.1775 H   0  0  0  0  0  0  0  0  0  0  0  0
    5.4889    1.5734    0.4311 H   0  0  0  0  0  0  0  0  0  0  0  0
   -4.0399    2.3837    1.3873 H   0  0  0  0  0  0  0  0  0  0  0  0
    3.7065   -1.9899   -1.1821 H   0  0  0  0  0  0  0  0  0  0  0  0
   -5.6002    1.2430    0.0212 H   0  0  0  0  0  0  0  0  0  0  0  0
   -2.6576   -1.9350    0.2283 H   0  0  0  0  0  0  0  0  0  0  0  0
    6.7243    0.1341    2.0360 H   0  0  0  0  0  0  0  0  0  0  0  0
   -7.3173   -0.5077   -0.2474 H   0  0  0  0  0  0  0  0  0  0  0  0
   -4.5309   -3.5332   -0.0667 H   0  0  0  0  0  0  0  0  0  0  0  0
    6.3684   -2.3387    1.9319 H   0  0  0  0  0  0  0  0  0  0  0  0
  1 12  1  0  0  0  0
  1 15  1  0  0  0  0
  2 13  2  0  0  0  0
  3  8  1  0  0  0  0
  3 13  1  0  0  0  0
  3 25  1  0  0  0  0
  4 12  1  0  0  0  0
  4 13  1  0  0  0  0
  4 26  1  0  0  0  0
  5 10  1  0  0  0  0
  5 12  2  0  0  0  0
  6 16  1  0  0  0  0
  6 20  2  0  0  0  0
  7 21  2  0  0  0  0
  7 22  1  0  0  0  0
  8  9  1  0  0  0  0
  8 23  1  0  0  0  0
  8 24  1  0  0  0  0
  9 14  1  0  0  0  0
  9 16  2  0  0  0  0
 10 11  1  0  0  0  0
 10 15  2  0  0  0  0
 11 17  2  0  0  0  0
 11 18  1  0  0  0  0
 14 19  2  0  0  0  0
 14 27  1  0  0  0  0
 15 28  1  0  0  0  0
 16 29  1  0  0  0  0
 17 21  1  0  0  0  0
 17 30  1  0  0  0  0
 18 22  2  0  0  0  0
 18 31  1  0  0  0  0
 19 20  1  0  0  0  0
 19 32  1  0  0  0  0
 20 35  1  0  0  0  0
 21 33  1  0  0  0  0
 22 34  1  0  0  0  0
M  END
> <PUBCHEM_COMPOUND_CID>
87405878

> <PUBCHEM_CONFORMER_RMSD>
0.8

> <PUBCHEM_CONFORMER_DIVERSEORDER>
1
13
92
18
110
70
59
103
39
17
109
73
42
96
35
60
41
116
99
15
57
115
25
67
46
4
111
29
64
113
50
119
107
32
27
10
87
14
21
2
97
33
34
75
106
9
120
56
85
69
98
77
44
30
20
22
55
101
62
83
3
76
105
16
26
78
66
65
12
82
8
36
5
58
100
47
68
37
24
88
49
74
7
90
51
72
108
38
81
40
54
71
19
114
93
31
123
23
11
117
61
112
89
52
28
122
102
48
95
86
63
84
118
121
53
104
6
91
94
43
80
45
79

> <PUBCHEM_MMFF94_PARTIAL_CHARGES>
33
1 -0.08
10 0.17
11 0.05
12 0.44
13 0.69
14 -0.15
15 -0.11
16 0.16
17 -0.15
18 -0.15
19 -0.15
2 -0.57
20 0.16
21 0.16
22 0.16
25 0.37
26 0.37
27 0.15
28 0.15
29 0.15
3 -0.73
30 0.15
31 0.15
32 0.15
33 0.15
34 0.15
35 0.15
4 -0.49
5 -0.57
6 -0.62
7 -0.62
8 0.44
9 -0.14

> <PUBCHEM_EFFECTIVE_ROTOR_COUNT>
6

> <PUBCHEM_PHARMACOPHORE_FEATURES>
8
1 2 acceptor
1 3 donor
1 4 donor
1 6 acceptor
1 7 acceptor
5 1 5 10 12 15 rings
6 6 9 14 16 19 20 rings
6 7 11 17 18 21 22 rings

> <PUBCHEM_HEAVY_ATOM_COUNT>
22

> <PUBCHEM_ATOM_DEF_STEREO_COUNT>
0

> <PUBCHEM_ATOM_UDEF_STEREO_COUNT>
0

> <PUBCHEM_BOND_DEF_STEREO_COUNT>
0

> <PUBCHEM_BOND_UDEF_STEREO_COUNT>
0

> <PUBCHEM_ISOTOPIC_ATOM_COUNT>
0

> <PUBCHEM_COMPONENT_COUNT>
1

> <PUBCHEM_CACTVS_TAUTO_COUNT>
5

> <PUBCHEM_CONFORMER_ID>
0535B53600000001

> <PUBCHEM_MMFF94_ENERGY>
48.124

> <PUBCHEM_FEATURE_SELFOVERLAP>
40.64

> <PUBCHEM_SHAPE_FINGERPRINT>
10 15 17560795559364833192
10378564 45 11602816887909826648
10571361 74 18334287643946183770
10753850 27 18333450967378626497
10803635 8 18187361035224023645
10912923 1 18335715931146352396
10939801 23 18199466752539964788
11809386 21 18334579045092448673
12342043 65 16485316966317422732
12523318 42 18201999889337707897
12596602 18 18343016658642935672
12839892 36 18272089357683411542
13533116 47 18333733541898899256
13885169 86 10663812013962956971
13914758 101 17749104444809157829
14211702 104 18408893927116259122
14251740 57 18270687463853497662
14251751 18 18342173371203825658
14251752 14 18113333094885028981
14347332 77 18334012787582004485
14848178 5 18333448742353555918
15183329 4 13334732401871454636
15188451 53 18408878517216056656
15250474 111 18335707121941250002
17349148 13 18186813460731321164
17857418 61 18334859419871683554
17959699 21 9511454533615247100
18222031 100 18113626660073410700
18785283 64 16629387216160990384
20028762 73 18335700508214548938
20374829 77 18341618152851069237
20567600 70 18340486784733284728
20843269 155 18339921618519346398
21315763 87 17060623308457315543
21728266 224 18411139117001324713
22061861 79 15791734100634206698
22079108 93 14261349158768540445
2215653 11 14634869743124988392
23198884 109 15719391742244403189
23559900 14 18340197601061008825
29717793 49 17240483611083326324
3004659 81 18334867142381144468
312425 54 17916876690228215626
3298306 158 13118002206059955272
339767 52 18411414016567734535
3472631 163 9151169861543857208
3882209 13 16696640043154461351
3886686 26 17478616702836908314
4058900 60 8574171474320406557
439807 62 18115875268995939723
5085150 59 18271520914999581559
5104073 3 17703234988329429194
5283384 97 17095515155045664106
531348 171 17822286843637312789
559249 180 18334011654047994921
5718773 13 18198057174676539543
5924683 9 18339925922213519321
59682541 35 17988916821456528362
59682541 52 15430302638262113515
60123966 16 14996293565030052510
6438161 24 18337947996033432487
6679774 75 17261855059190699640
67856867 119 18337113474723301076
960060 61 16153436034656704422
96874 4 18187917370501249410

> <PUBCHEM_SHAPE_MULTIPOLES>
425.82
17.55
2.72
1.12
5.26
0.04
-0.02
-11.7
3.17
-2.07
0.6
1.53
0.17
-1.57

> <PUBCHEM_SHAPE_SELFOVERLAP>
908.052

> <PUBCHEM_SHAPE_VOLUME>
237.9

> <PUBCHEM_COORDINATE_TYPE>
2
5
10

$$$$
87406504
  -OEChem-05102415133D

 40 42  0     0  0  0  0  0  0999 V2000
   -2.4390    2.9373   -0.4567 S   0  0  0  0  0  0  0  0  0  0  0  0
    6.4734    2.1045    2.0030 F   0  0  0  0  0  0  0  0  0  0  0  0
    6.4688    1.8830   -0.1602 F   0  0  0  0  0  0  0  0  0  0  0  0
    5.9963    0.0894    1.1390 O   0  0  0  0  0  0  0  0  0  0  0  0
   -0.2642   -1.1342   -1.2417 O   0  0  0  0  0  0  0  0  0  0  0  0
    1.4683    0.3014   -1.7742 N   0  0  0  0  0  0  0  0  0  0  0  0
   -0.5414    1.1928   -1.1054 N   0  0  0  0  0  0  0  0  0  0  0  0
   -2.7415    0.3704   -0.4095 N   0  0  0  0  0  0  0  0  0  0  0  0
   -7.2799   -1.4335    1.0256 N   0  0  0  0  0  0  0  0  0  0  0  0
    3.2388   -1.1413   -0.9265 C   0  0  0  0  0  0  0  0  0  0  0  0
    2.4339   -0.7151   -2.1072 C   0  0  0  0  0  0  0  0  0  0  0  0
    4.2528   -0.3165   -0.4393 C   0  0  0  0  0  0  0  0  0  0  0  0
    2.9783   -2.3650   -0.3095 C   0  0  0  0  0  0  0  0  0  0  0  0
    5.0063   -0.7152    0.6648 C   0  0  0  0  0  0  0  0  0  0  0  0
    3.7319   -2.7639    0.7944 C   0  0  0  0  0  0  0  0  0  0  0  0
    4.7458   -1.9390    1.2817 C   0  0  0  0  0  0  0  0  0  0  0  0
   -3.9357    0.9393   -0.0120 C   0  0  0  0  0  0  0  0  0  0  0  0
    0.1629    0.0121   -1.3571 C   0  0  0  0  0  0  0  0  0  0  0  0
   -5.0698    0.1347    0.3398 C   0  0  0  0  0  0  0  0  0  0  0  0
   -1.8800    1.3288   -0.6693 C   0  0  0  0  0  0  0  0  0  0  0  0
   -3.9640    2.3178    0.0245 C   0  0  0  0  0  0  0  0  0  0  0  0
   -5.9872    0.5938    1.2786 C   0  0  0  0  0  0  0  0  0  0  0  0
   -5.2562   -1.1075   -0.2565 C   0  0  0  0  0  0  0  0  0  0  0  0
   -7.0655   -0.2211    1.5840 C   0  0  0  0  0  0  0  0  0  0  0  0
   -6.3673   -1.8462    0.1174 C   0  0  0  0  0  0  0  0  0  0  0  0
    5.8342    1.4932    0.9725 C   0  0  0  0  0  0  0  0  0  0  0  0
    1.9145   -1.5690   -2.5579 H   0  0  0  0  0  0  0  0  0  0  0  0
    3.0915   -0.3038   -2.8819 H   0  0  0  0  0  0  0  0  0  0  0  0
    4.4512    0.6186   -0.9560 H   0  0  0  0  0  0  0  0  0  0  0  0
    2.1907   -3.0173   -0.6772 H   0  0  0  0  0  0  0  0  0  0  0  0
    1.7574    1.2735   -1.8250 H   0  0  0  0  0  0  0  0  0  0  0  0
    3.5290   -3.7165    1.2750 H   0  0  0  0  0  0  0  0  0  0  0  0
    5.3294   -2.2550    2.1421 H   0  0  0  0  0  0  0  0  0  0  0  0
   -0.0551    2.0741   -1.2455 H   0  0  0  0  0  0  0  0  0  0  0  0
   -4.7686    2.9912    0.2858 H   0  0  0  0  0  0  0  0  0  0  0  0
   -5.8866    1.5457    1.7891 H   0  0  0  0  0  0  0  0  0  0  0  0
   -4.5693   -1.5046   -0.9969 H   0  0  0  0  0  0  0  0  0  0  0  0
   -7.8073    0.0888    2.3127 H   0  0  0  0  0  0  0  0  0  0  0  0
   -6.5589   -2.8209   -0.3191 H   0  0  0  0  0  0  0  0  0  0  0  0
    4.7935    1.8363    0.9741 H   0  0  0  0  0  0  0  0  0  0  0  0
  1 20  1  0  0  0  0
  1 21  1  0  0  0  0
  2 26  1  0  0  0  0
  3 26  1  0  0  0  0
  4 14  1  0  0  0  0
  4 26  1  0  0  0  0
  5 18  2  0  0  0  0
  6 11  1  0  0  0  0
  6 18  1  0  0  0  0
  6 31  1  0  0  0  0
  7 18  1  0  0  0  0
  7 20  1  0  0  0  0
  7 34  1  0  0  0  0
  8 17  1  0  0  0  0
  8 20  2  0  0  0  0
  9 24  2  0  0  0  0
  9 25  1  0  0  0  0
 10 11  1  0  0  0  0
 10 12  2  0  0  0  0
 10 13  1  0  0  0  0
 11 27  1  0  0  0  0
 11 28  1  0  0  0  0
 12 14  1  0  0  0  0
 12 29  1  0  0  0  0
 13 15  2  0  0  0  0
 13 30  1  0  0  0  0
 14 16  2  0  0  0  0
 15 16  1  0  0  0  0
 15 32  1  0  0  0  0
 16 33  1  0  0  0  0
 17 19  1  0  0  0  0
 17 21  2  0  0  0  0
 19 22  2  0  0  0  0
 19 23  1  0  0  0  0
 21 35  1  0  0  0  0
 22 24  1  0  0  0  0
 22 36  1  0  0  0  0
 23 25  2  0  0  0  0
 23 37  1  0  0  0  0
 24 38  1  0  0  0  0
 25 39  1  0  0  0  0
 26 40  1  0  0  0  0
M  END
> <PUBCHEM_COMPOUND_CID>
87406504

> <PUBCHEM_CONFORMER_RMSD>
0.8

> <PUBCHEM_CONFORMER_DIVERSEORDER>
2
83
229
211
70
118
202
257
199
259
193
74
234
59
186
132
176
243
42
40
221
155
246
256
50
69
164
238
144
33
213
206
5
113
10
231
233
19
228
152
162
247
226
154
219
218
220
260
224
227
241
244
128
82
201
77
11
141
36
99
130
112
172
240
167
212
208
192
129
185
249
123
110
196
136
88
156
236
127
4
160
93
204
217
149
119
139
245
125
222
203
187
191
174
47
21
137
252
124
182
216
148
150
67
117
254
195
189
179
143
200
133
232
28
23
126
209
173
197
261
157
66
223
134
255
35
131
239
114
168
79
181
180
210
102
111
108
17
248
29
147
194
135
3
258
44
48
94
198
109
105
68
140
145
166
161
242
153
230
78
72
9
26
53
100
64
183
25
251
158
177
146
80
170
151
91
97
184
89
73
56
237
81
87
41
90
138
262
84
16
107
49
142
103
115
27
169
116
175
101
8
31
171
253
190
71
52
120
178
14
121
188
106
95
92
55
46
1
235
104
214
205
165
98
34
75
225
122
76
159
24
85
57
250
32
63
61
6
207
96
15
39
215
20
163
58
51
13
7
45
62
22
43
86
12
30
37
54
60
65
38
18

> <PUBCHEM_MMFF94_PARTIAL_CHARGES>
37
1 -0.08
10 -0.14
11 0.44
12 -0.15
13 -0.15
14 0.08
15 -0.15
16 -0.15
17 0.17
18 0.69
19 0.05
2 -0.34
20 0.44
21 -0.11
22 -0.15
23 -0.15
24 0.16
25 0.16
26 0.96
29 0.15
3 -0.34
30 0.15
31 0.37
32 0.15
33 0.15
34 0.37
35 0.15
36 0.15
37 0.15
38 0.15
39 0.15
4 -0.36
5 -0.57
6 -0.73
7 -0.49
8 -0.57
9 -0.62

> <PUBCHEM_EFFECTIVE_ROTOR_COUNT>
8

> <PUBCHEM_PHARMACOPHORE_FEATURES>
8
1 4 acceptor
1 5 acceptor
1 6 donor
1 7 donor
1 9 acceptor
5 1 8 17 20 21 rings
6 10 12 13 14 15 16 rings
6 9 19 22 23 24 25 rings

> <PUBCHEM_HEAVY_ATOM_COUNT>
26

> <PUBCHEM_ATOM_DEF_STEREO_COUNT>
0

> <PUBCHEM_ATOM_UDEF_STEREO_COUNT>
0

> <PUBCHEM_BOND_DEF_STEREO_COUNT>
0

> <PUBCHEM_BOND_UDEF_STEREO_COUNT>
0

> <PUBCHEM_ISOTOPIC_ATOM_COUNT>
0

> <PUBCHEM_COMPONENT_COUNT>
1

> <PUBCHEM_CACTVS_TAUTO_COUNT>
5

> <PUBCHEM_CONFORMER_ID>
0535B7A800000002

> <PUBCHEM_MMFF94_ENERGY>
62.5243

> <PUBCHEM_FEATURE_SELFOVERLAP>
40.648

> <PUBCHEM_SHAPE_FINGERPRINT>
10 15 18131915957779803021
10378564 45 9367340436408518758
10753850 27 17530690914000878463
10939801 23 18338802337172730055
11088757 655 18263081184004110467
11135609 201 17986936613989417864
12342043 65 17342966757767551263
12596602 18 18410008793367565608
12616971 3 14116949102654867623
12670543 26 7925912577893641925
12892183 10 18264484001605018484
13533116 47 17822303382849286567
14347332 77 17895200974481764869
14394314 77 18335988589087681601
14428016 204 14764354804460745129
14840074 17 13686297955314330555
14848178 5 17095249081410180391
15052358 14 9151174263785108333
15183329 4 9583524221959307684
15188451 53 17749389243720945975
15326921 28 17831868946088775833
15348495 7 18267863882894684016
15475509 8 11383838181295524066
15684389 69 18058157504942276215
17349148 13 17458925733868215775
17857418 61 18040443170318060079
190975 80 18412265077538590051
19315092 285 17169248379124469256
19377110 9 18410013247122135461
20028762 73 17749675082084704490
20567600 234 18334294297123973744
21315763 87 18334862692668691387
21458453 9 18270678795949949235
22061861 79 14490484083952850527
3383291 50 17458636635609808131
3459 83 8358260375504573695
3663271 9 18341334409693633947
38570 142 12607408797382159069
397830 11 18343302543960338573
4173938 77 14189287222682863419
444735 79 18260260859353349860
5104073 3 18267586814570412441
531348 171 12829206681468947905
5364581 5 18273215296677911825
54076057 255 14908180876238389034
57307002 103 18130506328302923734
6443934 186 18412543228004833312
9689198 14 16056603191885306536

> <PUBCHEM_SHAPE_MULTIPOLES>
492.71
20.96
2.83
1.63
6.26
0.47
0.07
-2.67
-12.24
-0.98
-0.47
-1.39
0.06
1.31

> <PUBCHEM_SHAPE_SELFOVERLAP>
1049.256

> <PUBCHEM_SHAPE_VOLUME>
275.8

> <PUBCHEM_COORDINATE_TYPE>
2
5
10

$$$$
87405986
  -OEChem-05102415133D

 36 38  0     0  0  0  0  0  0999 V2000
    5.0457   -2.2389   -0.5084 Cl  0  0  0  0  0  0  0  0  0  0  0  0
    6.2677    2.8741   -1.6610 Cl  0  0  0  0  0  0  0  0  0  0  0  0
   -2.2158   -2.7466   -1.2507 S   0  0  0  0  0  0  0  0  0  0  0  0
    0.5087    0.0179    1.3681 O   0  0  0  0  0  0  0  0  0  0  0  0
    2.0453   -1.6429    0.8915 N   0  0  0  0  0  0  0  0  0  0  0  0
   -0.0840   -1.8272    0.0435 N   0  0  0  0  0  0  0  0  0  0  0  0
   -2.1697   -0.5438    0.1013 N   0  0  0  0  0  0  0  0  0  0  0  0
   -6.4577    2.1934    0.2782 N   0  0  0  0  0  0  0  0  0  0  0  0
    3.1466   -1.0695    1.6202 C   0  0  0  0  0  0  0  0  0  0  0  0
    3.9380   -0.1127    0.7879 C   0  0  0  0  0  0  0  0  0  0  0  0
    4.8200   -0.5560   -0.1978 C   0  0  0  0  0  0  0  0  0  0  0  0
    3.7763    1.2540    1.0157 C   0  0  0  0  0  0  0  0  0  0  0  0
   -3.4395   -0.6857   -0.4232 C   0  0  0  0  0  0  0  0  0  0  0  0
   -4.4631    0.2907   -0.1853 C   0  0  0  0  0  0  0  0  0  0  0  0
    0.7797   -1.0459    0.8162 C   0  0  0  0  0  0  0  0  0  0  0  0
   -1.4393   -1.5718   -0.2701 C   0  0  0  0  0  0  0  0  0  0  0  0
    5.5404    0.3675   -0.9554 C   0  0  0  0  0  0  0  0  0  0  0  0
    4.4970    2.1774    0.2584 C   0  0  0  0  0  0  0  0  0  0  0  0
    5.3790    1.7342   -0.7272 C   0  0  0  0  0  0  0  0  0  0  0  0
   -3.6548   -1.8162   -1.1833 C   0  0  0  0  0  0  0  0  0  0  0  0
   -5.7989   -0.0935   -0.1472 C   0  0  0  0  0  0  0  0  0  0  0  0
   -4.1234    1.6251    0.0083 C   0  0  0  0  0  0  0  0  0  0  0  0
   -6.7494    0.8874    0.0859 C   0  0  0  0  0  0  0  0  0  0  0  0
   -5.1488    2.5291    0.2344 C   0  0  0  0  0  0  0  0  0  0  0  0
    2.7516   -0.5721    2.5146 H   0  0  0  0  0  0  0  0  0  0  0  0
    3.7759   -1.8874    1.9882 H   0  0  0  0  0  0  0  0  0  0  0  0
    2.2020   -2.5123    0.3909 H   0  0  0  0  0  0  0  0  0  0  0  0
    3.0924    1.6174    1.7782 H   0  0  0  0  0  0  0  0  0  0  0  0
    6.2288    0.0237   -1.7247 H   0  0  0  0  0  0  0  0  0  0  0  0
    4.3608    3.2393    0.4468 H   0  0  0  0  0  0  0  0  0  0  0  0
    0.2822   -2.6886   -0.3524 H   0  0  0  0  0  0  0  0  0  0  0  0
   -4.5427   -2.1462   -1.7048 H   0  0  0  0  0  0  0  0  0  0  0  0
   -6.1240   -1.1207   -0.2744 H   0  0  0  0  0  0  0  0  0  0  0  0
   -3.0953    1.9717   -0.0171 H   0  0  0  0  0  0  0  0  0  0  0  0
   -7.8048    0.6393    0.1292 H   0  0  0  0  0  0  0  0  0  0  0  0
   -4.9370    3.5818    0.3903 H   0  0  0  0  0  0  0  0  0  0  0  0
  1 11  1  0  0  0  0
  2 19  1  0  0  0  0
  3 16  1  0  0  0  0
  3 20  1  0  0  0  0
  4 15  2  0  0  0  0
  5  9  1  0  0  0  0
  5 15  1  0  0  0  0
  5 27  1  0  0  0  0
  6 15  1  0  0  0  0
  6 16  1  0  0  0  0
  6 31  1  0  0  0  0
  7 13  1  0  0  0  0
  7 16  2  0  0  0  0
  8 23  2  0  0  0  0
  8 24  1  0  0  0  0
  9 10  1  0  0  0  0
  9 25  1  0  0  0  0
  9 26  1  0  0  0  0
 10 11  2  0  0  0  0
 10 12  1  0  0  0  0
 11 17  1  0  0  0  0
 12 18  2  0  0  0  0
 12 28  1  0  0  0  0
 13 14  1  0  0  0  0
 13 20  2  0  0  0  0
 14 21  2  0  0  0  0
 14 22  1  0  0  0  0
 17 19  2  0  0  0  0
 17 29  1  0  0  0  0
 18 19  1  0  0  0  0
 18 30  1  0  0  0  0
 20 32  1  0  0  0  0
 21 23  1  0  0  0  0
 21 33  1  0  0  0  0
 22 24  2  0  0  0  0
 22 34  1  0  0  0  0
 23 35  1  0  0  0  0
 24 36  1  0  0  0  0
M  END
> <PUBCHEM_COMPOUND_CID>
87405986

> <PUBCHEM_CONFORMER_RMSD>
0.8

> <PUBCHEM_CONFORMER_DIVERSEORDER>
1
90
79
153
104
28
150
41
143
35
94
59
42
130
125
68
147
80
3
95
78
114
128
108
55
139
15
126
137
110
98
57
47
18
10
20
117
43
91
140
8
142
145
73
132
63
97
86
27
120
118
127
87
60
81
111
24
101
144
96
9
119
64
88
29
84
38
75
100
149
16
45
92
7
40
133
22
154
131
46
17
136
70
13
34
61
83
141
25
49
106
50
124
12
67
36
138
122
37
69
62
146
103
23
30
77
148
121
109
39
26
72
19
56
65
102
151
82
33
115
85
44
11
58
14
51
52
76
53
32
135
116
89
71
107
6
152
31
66
48
5
113
74
99
93
2
112
54
134
123
105
129
21
4

> <PUBCHEM_MMFF94_PARTIAL_CHARGES>
34
1 -0.18
10 -0.14
11 0.18
12 -0.15
13 0.17
14 0.05
15 0.69
16 0.44
17 -0.15
18 -0.15
19 0.18
2 -0.18
20 -0.11
21 -0.15
22 -0.15
23 0.16
24 0.16
27 0.37
28 0.15
29 0.15
3 -0.08
30 0.15
31 0.37
32 0.15
33 0.15
34 0.15
35 0.15
36 0.15
4 -0.57
5 -0.73
6 -0.49
7 -0.57
8 -0.62
9 0.44

> <PUBCHEM_EFFECTIVE_ROTOR_COUNT>
6

> <PUBCHEM_PHARMACOPHORE_FEATURES>
7
1 4 acceptor
1 5 donor
1 6 donor
1 8 acceptor
5 3 7 13 16 20 rings
6 10 11 12 17 18 19 rings
6 8 14 21 22 23 24 rings

> <PUBCHEM_HEAVY_ATOM_COUNT>
24

> <PUBCHEM_ATOM_DEF_STEREO_COUNT>
0

> <PUBCHEM_ATOM_UDEF_STEREO_COUNT>
0

> <PUBCHEM_BOND_DEF_STEREO_COUNT>
0

> <PUBCHEM_BOND_UDEF_STEREO_COUNT>
0

> <PUBCHEM_ISOTOPIC_ATOM_COUNT>
0

> <PUBCHEM_COMPONENT_COUNT>
1

> <PUBCHEM_CACTVS_TAUTO_COUNT>
5

> <PUBCHEM_CONFORMER_ID>
0535B5A200000001

> <PUBCHEM_MMFF94_ENERGY>
51.1176

> <PUBCHEM_FEATURE_SELFOVERLAP>
35.573

> <PUBCHEM_SHAPE_FINGERPRINT>
10 15 13406799943212032086
10378564 45 18060421305295285262
10554248 39 18195507234969683535
10670039 82 17845940619372825921
11273773 42 18188213224827532844
11991303 11 17203321260926894791
1200032 147 17458634462704228804
12342043 65 14708881040228997906
12390115 104 17989489598564316883
12596602 18 17676485021888240513
12616971 3 18114727275149221962
13690498 29 17629759234608619711
13782708 43 15481810450804484359
13885169 86 18187372059719763717
13955234 65 17023452059302583186
14251751 18 7997971267058624573
14251757 5 18130787892977347819
14251764 75 18041283283153813356
14347332 77 9799693701544336971
14528608 73 18410288129381971250
1454969 45 18413099564573775871
14790565 3 18411980226601624753
14840074 17 18113337509658027645
14848178 5 10879990263559162704
15001296 14 18335133245554689257
15183329 4 17346886636726156049
15188451 53 9151181930364970252
15210252 30 18115589382987712580
15575132 122 18262513698538909397
15685185 35 17533794951090780716
15840311 113 18187369796551392125
17899979 129 18335430106000481612
17959699 21 18410855482056841530
18222031 100 12463575105863650650
19377110 9 12324247195625676506
19611394 137 18261685878389849875
21298829 104 18261678194350933340
21315764 119 18131642166594725886
22061861 79 15195284243959448561
23559900 14 17203600532316233234
249057 3 18270962341602361270
3004659 81 18201435836248058994
312425 54 11891869680793470268
3472631 163 18411983567648344503
3610482 184 18341332283616432751
38570 142 18260275139766038418
393628 194 17680436851421168828
394071 54 17095526244624894284
4058900 60 18199475364197729251
445580 204 18335422434999252892
5104073 3 17240477057253390114
543368 44 18188206606356619893
5718773 13 11599462264964762620
5911458 16 18334020505311441308
59682541 52 15626223464438570637
633830 44 18261104184476831962
7808743 9 18341606023715810227
8988823 20 9079106761722254978

> <PUBCHEM_SHAPE_MULTIPOLES>
475.7
19.13
3.2
1.27
5.34
0.57
0.02
13.31
3.97
-0.53
0.94
-1.52
-0.07
-2.54

> <PUBCHEM_SHAPE_SELFOVERLAP>
997.612

> <PUBCHEM_SHAPE_VOLUME>
271.9

> <PUBCHEM_COORDINATE_TYPE>
2
5
10

$$$$
87405894
  -OEChem-05102415133D

 35 37  0     0  0  0  0  0  0999 V2000
   -1.6713    2.8826    0.9410 S   0  0  0  0  0  0  0  0  0  0  0  0
    1.0760   -0.2414   -1.2077 O   0  0  0  0  0  0  0  0  0  0  0  0
    2.6348    1.4311   -0.8661 N   0  0  0  0  0  0  0  0  0  0  0  0
    0.4401    1.7580   -0.1317 N   0  0  0  0  0  0  0  0  0  0  0  0
   -1.6337    0.5319   -0.1337 N   0  0  0  0  0  0  0  0  0  0  0  0
    4.2772   -1.4499   -0.5780 N   0  0  0  0  0  0  0  0  0  0  0  0
   -5.9881   -2.1066   -0.1653 N   0  0  0  0  0  0  0  0  0  0  0  0
    3.7515    0.7457   -1.4750 C   0  0  0  0  0  0  0  0  0  0  0  0
   -2.9190    0.7659    0.3149 C   0  0  0  0  0  0  0  0  0  0  0  0
    4.4859   -0.1171   -0.4899 C   0  0  0  0  0  0  0  0  0  0  0  0
   -3.9604   -0.2088    0.1519 C   0  0  0  0  0  0  0  0  0  0  0  0
   -0.8899    1.5800    0.1427 C   0  0  0  0  0  0  0  0  0  0  0  0
    1.3547    0.8748   -0.7763 C   0  0  0  0  0  0  0  0  0  0  0  0
   -3.1323    1.9847    0.9239 C   0  0  0  0  0  0  0  0  0  0  0  0
    5.3227    0.4771    0.4411 C   0  0  0  0  0  0  0  0  0  0  0  0
   -5.2822    0.1990    0.0107 C   0  0  0  0  0  0  0  0  0  0  0  0
   -3.6512   -1.5644    0.1347 C   0  0  0  0  0  0  0  0  0  0  0  0
    5.9879   -0.3498    1.3395 C   0  0  0  0  0  0  0  0  0  0  0  0
    5.7987   -1.7261    1.2804 C   0  0  0  0  0  0  0  0  0  0  0  0
    4.9408   -2.2216    0.3118 C   0  0  0  0  0  0  0  0  0  0  0  0
   -6.2500   -0.7804   -0.1437 C   0  0  0  0  0  0  0  0  0  0  0  0
   -4.6920   -2.4649   -0.0252 C   0  0  0  0  0  0  0  0  0  0  0  0
    4.4236    1.5035   -1.8925 H   0  0  0  0  0  0  0  0  0  0  0  0
    3.3849    0.1366   -2.3093 H   0  0  0  0  0  0  0  0  0  0  0  0
    2.7938    2.3510   -0.4667 H   0  0  0  0  0  0  0  0  0  0  0  0
    0.8173    2.6516    0.1723 H   0  0  0  0  0  0  0  0  0  0  0  0
   -4.0306    2.3961    1.3632 H   0  0  0  0  0  0  0  0  0  0  0  0
    5.4634    1.5520    0.4789 H   0  0  0  0  0  0  0  0  0  0  0  0
   -5.5828    1.2414   -0.0002 H   0  0  0  0  0  0  0  0  0  0  0  0
   -2.6351   -1.9292    0.2457 H   0  0  0  0  0  0  0  0  0  0  0  0
    6.6524    0.0775    2.0844 H   0  0  0  0  0  0  0  0  0  0  0  0
    6.3067   -2.3897    1.9706 H   0  0  0  0  0  0  0  0  0  0  0  0
    4.7590   -3.2877    0.2238 H   0  0  0  0  0  0  0  0  0  0  0  0
   -7.2954   -0.5149   -0.2618 H   0  0  0  0  0  0  0  0  0  0  0  0
   -4.5041   -3.5334   -0.0443 H   0  0  0  0  0  0  0  0  0  0  0  0
  1 12  1  0  0  0  0
  1 14  1  0  0  0  0
  2 13  2  0  0  0  0
  3  8  1  0  0  0  0
  3 13  1  0  0  0  0
  3 25  1  0  0  0  0
  4 12  1  0  0  0  0
  4 13  1  0  0  0  0
  4 26  1  0  0  0  0
  5  9  1  0  0  0  0
  5 12  2  0  0  0  0
  6 10  1  0  0  0  0
  6 20  2  0  0  0  0
  7 21  2  0  0  0  0
  7 22  1  0  0  0  0
  8 10  1  0  0  0  0
  8 23  1  0  0  0  0
  8 24  1  0  0  0  0
  9 11  1  0  0  0  0
  9 14  2  0  0  0  0
 10 15  2  0  0  0  0
 11 16  2  0  0  0  0
 11 17  1  0  0  0  0
 14 27  1  0  0  0  0
 15 18  1  0  0  0  0
 15 28  1  0  0  0  0
 16 21  1  0  0  0  0
 16 29  1  0  0  0  0
 17 22  2  0  0  0  0
 17 30  1  0  0  0  0
 18 19  2  0  0  0  0
 18 31  1  0  0  0  0
 19 20  1  0  0  0  0
 19 32  1  0  0  0  0
 20 33  1  0  0  0  0
 21 34  1  0  0  0  0
 22 35  1  0  0  0  0
M  END
> <PUBCHEM_COMPOUND_CID>
87405894

> <PUBCHEM_CONFORMER_RMSD>
0.8

> <PUBCHEM_CONFORMER_DIVERSEORDER>
1
80
75
45
97
52
128
11
25
26
47
31
101
29
37
116
12
149
14
23
81
105
131
56
76
121
63
93
155
13
124
154
140
3
100
118
61
146
117
148
99
59
33
15
143
156
65
119
10
64
16
84
89
51
36
74
49
27
35
88
152
147
28
134
127
9
62
139
86
41
130
79
96
30
141
113
4
72
60
142
150
78
46
138
53
69
73
94
18
126
24
104
70
77
120
135
66
43
8
39
102
22
107
103
32
71
87
40
106
2
82
21
109
111
67
34
90
83
48
55
137
98
110
38
68
153
114
42
92
58
115
44
50
145
95
108
20
133
57
5
123
17
136
129
19
144
85
132
6
7
112
125
151
54
91
122

> <PUBCHEM_MMFF94_PARTIAL_CHARGES>
33
1 -0.08
10 0.17
11 0.05
12 0.44
13 0.69
14 -0.11
15 -0.15
16 -0.15
17 -0.15
18 -0.15
19 -0.15
2 -0.57
20 0.16
21 0.16
22 0.16
25 0.37
26 0.37
27 0.15
28 0.15
29 0.15
3 -0.73
30 0.15
31 0.15
32 0.15
33 0.15
34 0.15
35 0.15
4 -0.49
5 -0.57
6 -0.62
7 -0.62
8 0.44
9 0.17

> <PUBCHEM_EFFECTIVE_ROTOR_COUNT>
6

> <PUBCHEM_PHARMACOPHORE_FEATURES>
8
1 2 acceptor
1 3 donor
1 4 donor
1 6 acceptor
1 7 acceptor
5 1 5 9 12 14 rings
6 6 10 15 18 19 20 rings
6 7 11 16 17 21 22 rings

> <PUBCHEM_HEAVY_ATOM_COUNT>
22

> <PUBCHEM_ATOM_DEF_STEREO_COUNT>
0

> <PUBCHEM_ATOM_UDEF_STEREO_COUNT>
0

> <PUBCHEM_BOND_DEF_STEREO_COUNT>
0

> <PUBCHEM_BOND_UDEF_STEREO_COUNT>
0

> <PUBCHEM_ISOTOPIC_ATOM_COUNT>
0

> <PUBCHEM_COMPONENT_COUNT>
1

> <PUBCHEM_CACTVS_TAUTO_COUNT>
5

> <PUBCHEM_CONFORMER_ID>
0535B54600000001

> <PUBCHEM_MMFF94_ENERGY>
47.446

> <PUBCHEM_FEATURE_SELFOVERLAP>
40.64

> <PUBCHEM_SHAPE_FINGERPRINT>
10 15 17560794459847924184
10378564 45 11602817987416173200
10571361 74 18334287643940909050
10753850 27 18261111898363981425
10803635 8 18187361035218748893
10912923 1 18335715931141071132
10939801 23 18199185273262973092
11809386 21 18334579045092448673
12342043 65 16485315866795232460
12523318 42 18201999889337707913
12596602 18 18343016658648216944
12839892 36 18272089357693967526
13533116 47 18333733541888349760
13885169 86 10735869607985054195
13914758 101 17749104444814432573
14211702 104 18408892827594075330
14251740 57 18270687463853497638
14251751 18 18341890796731324498
14251752 14 18040994025875684621
14347332 77 18334012787597815741
14848178 5 18333729113513128494
15183329 4 13190335738829385636
15188451 53 18408878517210762432
15250474 111 18335707121957067786
17349148 13 18186813456431066100
17857418 61 18334859419866415314
17959699 21 9511454533609978836
18222031 100 18113626660073391188
18785283 64 16629667591615504280
20028762 73 18335980883674363578
20374829 77 18341336677874358573
20567600 70 18340205305530198056
20843269 155 18339921618514078111
21315763 87 17060623308457328527
21728266 224 18410857642019332817
22061861 79 15791734100628944946
22079108 93 14261349158768540437
2215653 11 14634870842631321936
23198884 109 15719391742249671429
23559900 14 18340197601055734073
29717793 49 17312821580581062372
3004659 81 18334867142386393220
312425 54 17916876690191318370
339767 52 18411414012272773727
3472631 163 9151169865844092776
3882209 13 16624862824607983583
3886686 26 17478616707121326146
4058900 60 8574171474325674821
439807 62 18115593794013967323
5085150 59 18271520910715150767
5104073 3 17845940606861943954
5283384 97 17095514055518218586
531348 171 17822285739830724205
559249 180 18334011654037438921
5718773 13 18198056075164918279
5924683 9 18339925922213519329
59682541 52 15430301538761048251
60123966 16 14924234871475228526
6438161 24 18337666521056728319
6679774 75 17261855059185431384
67856867 119 18336831995467440876
76465 3 18334576841130952756
960060 61 16153436034656710894
96874 4 18187635895529820018

> <PUBCHEM_SHAPE_MULTIPOLES>
425.82
17.42
2.76
1.11
4.97
0
0.01
11.78
-3.01
-1.99
-0.59
1.49
-0.17
-1.62

> <PUBCHEM_SHAPE_SELFOVERLAP>
907.767

> <PUBCHEM_SHAPE_VOLUME>
238.2

> <PUBCHEM_COORDINATE_TYPE>
2
5
10

$$$$
87405072
  -OEChem-05102415133D

 38 40  0     0  0  0  0  0  0999 V2000
   -2.0692   -2.7442   -1.2920 S   0  0  0  0  0  0  0  0  0  0  0  0
    0.7106   -0.0587    1.3510 O   0  0  0  0  0  0  0  0  0  0  0  0
    2.2172   -1.7379    0.8447 N   0  0  0  0  0  0  0  0  0  0  0  0
    0.0827   -1.8764    0.0046 N   0  0  0  0  0  0  0  0  0  0  0  0
   -1.9819   -0.5606    0.0890 N   0  0  0  0  0  0  0  0  0  0  0  0
    6.5185    2.2825   -1.6121 N   0  0  0  0  0  0  0  0  0  0  0  0
   -6.2248    2.2421    0.3219 N   0  0  0  0  0  0  0  0  0  0  0  0
    4.1673   -0.2814    0.7412 C   0  0  0  0  0  0  0  0  0  0  0  0
    3.3316   -1.1914    1.5765 C   0  0  0  0  0  0  0  0  0  0  0  0
    4.0809    1.0999    0.9149 C   0  0  0  0  0  0  0  0  0  0  0  0
    5.0347   -0.8113   -0.2142 C   0  0  0  0  0  0  0  0  0  0  0  0
   -3.2562   -0.6752   -0.4315 C   0  0  0  0  0  0  0  0  0  0  0  0
    5.7293    1.4213   -0.8218 C   0  0  0  0  0  0  0  0  0  0  0  0
    4.8620    1.9512    0.1335 C   0  0  0  0  0  0  0  0  0  0  0  0
    5.8157    0.0399   -0.9956 C   0  0  0  0  0  0  0  0  0  0  0  0
   -4.2629    0.3141   -0.1760 C   0  0  0  0  0  0  0  0  0  0  0  0
    0.9620   -1.1192    0.7838 C   0  0  0  0  0  0  0  0  0  0  0  0
   -1.2698   -1.5951   -0.2993 C   0  0  0  0  0  0  0  0  0  0  0  0
   -3.4929   -1.7918   -1.2055 C   0  0  0  0  0  0  0  0  0  0  0  0
   -5.6046   -0.0491   -0.1369 C   0  0  0  0  0  0  0  0  0  0  0  0
   -3.9011    1.6403    0.0337 C   0  0  0  0  0  0  0  0  0  0  0  0
   -6.5381    0.9436    0.1135 C   0  0  0  0  0  0  0  0  0  0  0  0
   -4.9108    2.5574    0.2765 C   0  0  0  0  0  0  0  0  0  0  0  0
    3.9360   -2.0335    1.9335 H   0  0  0  0  0  0  0  0  0  0  0  0
    2.9568   -0.6741    2.4676 H   0  0  0  0  0  0  0  0  0  0  0  0
    3.4083    1.5269    1.6540 H   0  0  0  0  0  0  0  0  0  0  0  0
    5.1104   -1.8859   -0.3587 H   0  0  0  0  0  0  0  0  0  0  0  0
    2.3572   -2.6031    0.3320 H   0  0  0  0  0  0  0  0  0  0  0  0
    4.7853    3.0259    0.2780 H   0  0  0  0  0  0  0  0  0  0  0  0
    6.4877   -0.3851   -1.7368 H   0  0  0  0  0  0  0  0  0  0  0  0
    0.4332   -2.7381   -0.4043 H   0  0  0  0  0  0  0  0  0  0  0  0
   -4.3882   -2.1008   -1.7272 H   0  0  0  0  0  0  0  0  0  0  0  0
   -5.9467   -1.0692   -0.2763 H   0  0  0  0  0  0  0  0  0  0  0  0
   -2.8676    1.9707    0.0082 H   0  0  0  0  0  0  0  0  0  0  0  0
    7.1482    1.8990   -2.3044 H   0  0  0  0  0  0  0  0  0  0  0  0
    6.4568    3.2840   -1.4859 H   0  0  0  0  0  0  0  0  0  0  0  0
   -7.5972    0.7119    0.1584 H   0  0  0  0  0  0  0  0  0  0  0  0
   -4.6815    3.6044    0.4453 H   0  0  0  0  0  0  0  0  0  0  0  0
  1 18  1  0  0  0  0
  1 19  1  0  0  0  0
  2 17  2  0  0  0  0
  3  9  1  0  0  0  0
  3 17  1  0  0  0  0
  3 28  1  0  0  0  0
  4 17  1  0  0  0  0
  4 18  1  0  0  0  0
  4 31  1  0  0  0  0
  5 12  1  0  0  0  0
  5 18  2  0  0  0  0
  6 13  1  0  0  0  0
  6 35  1  0  0  0  0
  6 36  1  0  0  0  0
  7 22  2  0  0  0  0
  7 23  1  0  0  0  0
  8  9  1  0  0  0  0
  8 10  2  0  0  0  0
  8 11  1  0  0  0  0
  9 24  1  0  0  0  0
  9 25  1  0  0  0  0
 10 14  1  0  0  0  0
 10 26  1  0  0  0  0
 11 15  2  0  0  0  0
 11 27  1  0  0  0  0
 12 16  1  0  0  0  0
 12 19  2  0  0  0  0
 13 14  2  0  0  0  0
 13 15  1  0  0  0  0
 14 29  1  0  0  0  0
 15 30  1  0  0  0  0
 16 20  2  0  0  0  0
 16 21  1  0  0  0  0
 19 32  1  0  0  0  0
 20 22  1  0  0  0  0
 20 33  1  0  0  0  0
 21 23  2  0  0  0  0
 21 34  1  0  0  0  0
 22 37  1  0  0  0  0
 23 38  1  0  0  0  0
M  END
> <PUBCHEM_COMPOUND_CID>
87405072

> <PUBCHEM_CONFORMER_RMSD>
0.8

> <PUBCHEM_CONFORMER_DIVERSEORDER>
1
6
26
54
12
34
55
24
14
37
29
7
46
25
8
59
41
57
50
38
11
35
45
16
31
21
40
3
51
43
44
20
48
53
49
13
4
39
61
23
56
36
28
47
42
27
2
52
17
58
5
60
18
32
19
10
30
9
33
15
22

> <PUBCHEM_MMFF94_PARTIAL_CHARGES>
36
1 -0.08
10 -0.15
11 -0.15
12 0.17
13 0.1
14 -0.15
15 -0.15
16 0.05
17 0.69
18 0.44
19 -0.11
2 -0.57
20 -0.15
21 -0.15
22 0.16
23 0.16
26 0.15
27 0.15
28 0.37
29 0.15
3 -0.73
30 0.15
31 0.37
32 0.15
33 0.15
34 0.15
35 0.4
36 0.4
37 0.15
38 0.15
4 -0.49
5 -0.57
6 -0.9
7 -0.62
8 -0.14
9 0.44

> <PUBCHEM_EFFECTIVE_ROTOR_COUNT>
6

> <PUBCHEM_PHARMACOPHORE_FEATURES>
9
1 2 acceptor
1 3 donor
1 4 donor
1 6 cation
1 6 donor
1 7 acceptor
5 1 5 12 18 19 rings
6 7 16 20 21 22 23 rings
6 8 10 11 13 14 15 rings

> <PUBCHEM_HEAVY_ATOM_COUNT>
23

> <PUBCHEM_ATOM_DEF_STEREO_COUNT>
0

> <PUBCHEM_ATOM_UDEF_STEREO_COUNT>
0

> <PUBCHEM_BOND_DEF_STEREO_COUNT>
0

> <PUBCHEM_BOND_UDEF_STEREO_COUNT>
0

> <PUBCHEM_ISOTOPIC_ATOM_COUNT>
0

> <PUBCHEM_COMPONENT_COUNT>
1

> <PUBCHEM_CACTVS_TAUTO_COUNT>
5

> <PUBCHEM_CONFORMER_ID>
0535B21000000001

> <PUBCHEM_MMFF94_ENERGY>
60.6014

> <PUBCHEM_FEATURE_SELFOVERLAP>
45.723

> <PUBCHEM_SHAPE_FINGERPRINT>
10 15 13406799943317566110
10378564 45 17988927756554117742
10554248 39 18195507230574528431
10670039 82 17846223193982451160
10753850 27 10231748999023155455
11056379 131 18199743825012667487
11273773 42 18187650266468695836
11991303 11 17203320157025295719
12390115 104 17917432000157601099
12596602 18 17676204642027957057
12616971 3 18041825251991715826
13690498 29 17701533146030286047
13885169 86 18114752615160901540
13914758 101 12247690361663549811
13955234 65 16950831511079583186
14251751 18 7925911473870736628
14251757 5 18131068259752262859
14251764 75 17895481444372792036
14528608 73 18410570708413209794
1454969 45 18413099560220786303
14790565 3 18412543176460178537
14840074 17 18113900450884351293
14848178 5 10303812081649492528
15183329 4 17346887736348527544
15188451 53 9151178631961981718
15210252 30 18187365493522253292
15575132 122 18262796268621510725
15685185 35 17533514567167573628
16991971 28 17626930213657336119
17349148 13 10879713238300485010
17857418 61 9727631717479750003
17959699 21 18411418427794423330
20621476 91 13334744552328751465
21298829 104 18261396715179443180
21315763 87 14706928419494863929
21315764 119 18131642166705534702
22061861 79 15339117957090190332
2215653 11 16128657457297349062
23559900 14 17060049402332160898
255183 451 16980376767398241903
268830 7 17895460475899575186
3004659 81 18200873977337689082
3472631 163 18412545413900672286
34797466 226 16988273313087638570
3610482 184 18337676411585598918
38570 142 18260556606253138690
393628 194 17680998706231815116
4058900 60 18199475368381965699
445580 204 18335703892853980172
5104073 3 17240758528009070970
543368 44 18260545670896917141
5718773 13 11959468756025090804
5911458 16 18333740121488460996
59682541 52 15554446241428307525
633830 44 18260260854921616066
6438161 24 9150879565411429233
7062679 6 18411979152759424425
7808743 9 18341887490028772219

> <PUBCHEM_SHAPE_MULTIPOLES>
446.4
18.65
2.85
1.24
3.52
0.25
-0.04
13.58
-3.81
-1.78
-0.62
1.62
-0.19
-2.45

> <PUBCHEM_SHAPE_SELFOVERLAP>
952.68

> <PUBCHEM_SHAPE_VOLUME>
249.5

> <PUBCHEM_COORDINATE_TYPE>
2
5
10

$$$$
87405207
  -OEChem-05102415143D

 36 38  0     0  0  0  0  0  0999 V2000
   -2.2539   -2.9273   -0.9182 S   0  0  0  0  0  0  0  0  0  0  0  0
    4.5558    3.2972   -0.1260 F   0  0  0  0  0  0  0  0  0  0  0  0
    6.4517   -0.6963   -1.8239 F   0  0  0  0  0  0  0  0  0  0  0  0
    0.5036    0.1018    1.3500 O   0  0  0  0  0  0  0  0  0  0  0  0
    2.0220   -1.6195    1.0712 N   0  0  0  0  0  0  0  0  0  0  0  0
   -0.1101   -1.8817    0.2546 N   0  0  0  0  0  0  0  0  0  0  0  0
   -2.1833   -0.5801    0.1627 N   0  0  0  0  0  0  0  0  0  0  0  0
   -6.4445    2.2006    0.0196 N   0  0  0  0  0  0  0  0  0  0  0  0
    3.1315   -0.9739    1.7257 C   0  0  0  0  0  0  0  0  0  0  0  0
    3.9627   -0.1766    0.7783 C   0  0  0  0  0  0  0  0  0  0  0  0
    4.8351   -0.8224   -0.0978 C   0  0  0  0  0  0  0  0  0  0  0  0
    3.8683    1.2151    0.7687 C   0  0  0  0  0  0  0  0  0  0  0  0
   -3.4558   -0.7709   -0.3395 C   0  0  0  0  0  0  0  0  0  0  0  0
   -4.4694    0.2368   -0.2177 C   0  0  0  0  0  0  0  0  0  0  0  0
   -1.4638   -1.6521   -0.0850 C   0  0  0  0  0  0  0  0  0  0  0  0
    0.7629   -1.0227    0.9279 C   0  0  0  0  0  0  0  0  0  0  0  0
    4.6462    1.9609   -0.1167 C   0  0  0  0  0  0  0  0  0  0  0  0
    5.6131   -0.0765   -0.9832 C   0  0  0  0  0  0  0  0  0  0  0  0
    5.5187    1.3151   -0.9928 C   0  0  0  0  0  0  0  0  0  0  0  0
   -3.6839   -1.9814   -0.9596 C   0  0  0  0  0  0  0  0  0  0  0  0
   -5.8087   -0.1270   -0.1323 C   0  0  0  0  0  0  0  0  0  0  0  0
   -4.1165    1.5814   -0.1845 C   0  0  0  0  0  0  0  0  0  0  0  0
   -6.7491    0.8839   -0.0160 C   0  0  0  0  0  0  0  0  0  0  0  0
   -5.1326    2.5159   -0.0657 C   0  0  0  0  0  0  0  0  0  0  0  0
    2.7515   -0.3459    2.5401 H   0  0  0  0  0  0  0  0  0  0  0  0
    3.7406   -1.7574    2.1913 H   0  0  0  0  0  0  0  0  0  0  0  0
    2.1685   -2.5439    0.6773 H   0  0  0  0  0  0  0  0  0  0  0  0
    4.9179   -1.9060   -0.0998 H   0  0  0  0  0  0  0  0  0  0  0  0
    3.1922    1.7320    1.4444 H   0  0  0  0  0  0  0  0  0  0  0  0
    0.2468   -2.7875   -0.0368 H   0  0  0  0  0  0  0  0  0  0  0  0
   -4.5762   -2.3624   -1.4368 H   0  0  0  0  0  0  0  0  0  0  0  0
    6.1245    1.8957   -1.6820 H   0  0  0  0  0  0  0  0  0  0  0  0
   -6.1440   -1.1587   -0.1362 H   0  0  0  0  0  0  0  0  0  0  0  0
   -3.0852    1.9124   -0.2523 H   0  0  0  0  0  0  0  0  0  0  0  0
   -7.8068    0.6531    0.0580 H   0  0  0  0  0  0  0  0  0  0  0  0
   -4.9104    3.5775   -0.0362 H   0  0  0  0  0  0  0  0  0  0  0  0
  1 15  1  0  0  0  0
  1 20  1  0  0  0  0
  2 17  1  0  0  0  0
  3 18  1  0  0  0  0
  4 16  2  0  0  0  0
  5  9  1  0  0  0  0
  5 16  1  0  0  0  0
  5 27  1  0  0  0  0
  6 15  1  0  0  0  0
  6 16  1  0  0  0  0
  6 30  1  0  0  0  0
  7 13  1  0  0  0  0
  7 15  2  0  0  0  0
  8 23  2  0  0  0  0
  8 24  1  0  0  0  0
  9 10  1  0  0  0  0
  9 25  1  0  0  0  0
  9 26  1  0  0  0  0
 10 11  2  0  0  0  0
 10 12  1  0  0  0  0
 11 18  1  0  0  0  0
 11 28  1  0  0  0  0
 12 17  2  0  0  0  0
 12 29  1  0  0  0  0
 13 14  1  0  0  0  0
 13 20  2  0  0  0  0
 14 21  2  0  0  0  0
 14 22  1  0  0  0  0
 17 19  1  0  0  0  0
 18 19  2  0  0  0  0
 19 32  1  0  0  0  0
 20 31  1  0  0  0  0
 21 23  1  0  0  0  0
 21 33  1  0  0  0  0
 22 24  2  0  0  0  0
 22 34  1  0  0  0  0
 23 35  1  0  0  0  0
 24 36  1  0  0  0  0
M  END
> <PUBCHEM_COMPOUND_CID>
87405207

> <PUBCHEM_CONFORMER_RMSD>
0.8

> <PUBCHEM_CONFORMER_DIVERSEORDER>
1
28
86
16
69
82
15
25
75
76
71
11
53
32
80
38
40
57
19
79
51
36
67
63
58
18
7
44
2
23
81
30
78
45
9
56
14
73
22
70
35
85
10
26
87
68
8
52
54
74
31
39
21
37
41
48
46
65
13
49
6
17
72
24
3
43
42
29
27
55
50
66
83
61
12
5
59
47
33
60
77
4
84
20
62
34
64

> <PUBCHEM_MMFF94_PARTIAL_CHARGES>
34
1 -0.08
10 -0.14
11 -0.15
12 -0.15
13 0.17
14 0.05
15 0.44
16 0.69
17 0.19
18 0.19
19 -0.15
2 -0.19
20 -0.11
21 -0.15
22 -0.15
23 0.16
24 0.16
27 0.37
28 0.15
29 0.15
3 -0.19
30 0.37
31 0.15
32 0.15
33 0.15
34 0.15
35 0.15
36 0.15
4 -0.57
5 -0.73
6 -0.49
7 -0.57
8 -0.62
9 0.44

> <PUBCHEM_EFFECTIVE_ROTOR_COUNT>
6

> <PUBCHEM_PHARMACOPHORE_FEATURES>
7
1 4 acceptor
1 5 donor
1 6 donor
1 8 acceptor
5 1 7 13 15 20 rings
6 10 11 12 17 18 19 rings
6 8 14 21 22 23 24 rings

> <PUBCHEM_HEAVY_ATOM_COUNT>
24

> <PUBCHEM_ATOM_DEF_STEREO_COUNT>
0

> <PUBCHEM_ATOM_UDEF_STEREO_COUNT>
0

> <PUBCHEM_BOND_DEF_STEREO_COUNT>
0

> <PUBCHEM_BOND_UDEF_STEREO_COUNT>
0

> <PUBCHEM_ISOTOPIC_ATOM_COUNT>
0

> <PUBCHEM_COMPONENT_COUNT>
1

> <PUBCHEM_CACTVS_TAUTO_COUNT>
5

> <PUBCHEM_CONFORMER_ID>
0535B29700000001

> <PUBCHEM_MMFF94_ENERGY>
47.8331

> <PUBCHEM_FEATURE_SELFOVERLAP>
35.573

> <PUBCHEM_SHAPE_FINGERPRINT>
10 15 13045950113880004782
10378564 45 18131071533087099774
10554248 39 18192690277642270655
10638233 991 18335415785935652261
10670039 82 18059017168105398000
10753850 27 10952043464499642135
11056379 131 18268707389151162695
11070050 100 16153420641246275720
11991303 11 17560794477022980935
12390115 104 18131071498954338483
12596602 18 17458060435686942153
12616971 3 17968922137643426250
13690498 29 17772184469181211719
13885169 86 18335706057111322025
13914758 101 12679472976064322723
14251751 18 8646766694704270575
14251757 5 18272932751973983379
14251764 75 15866067791632714366
14528608 73 18335416889515452570
1454969 45 18410847769055129359
14790565 3 18410008806584997409
14840074 17 17894349969150078125
14848178 5 10664102254941057824
15001296 14 18188486990159241613
15052358 14 18131637763899708718
15183329 4 17846786182563827106
15188451 53 10015584986789595334
15210252 30 17968659436544201268
15575132 122 18187640250895553501
17844677 252 18337675333722997314
17857418 61 10375867493812372627
17959699 21 18410009970468198842
18222031 100 12391519715196641154
19377110 9 11602829020739101658
19611394 137 18115038523582826083
21315764 119 18130796633452365598
22061861 79 15985101924713289943
2215653 11 16773795896120476550
23559900 14 17489582398667870970
3004659 81 18201719548939348850
3472631 163 18411418418861584615
38570 142 18187372008195876562
4058900 60 18268998583875663235
5104073 3 17530954834940264914
56616090 163 18273496762800781103
59682541 52 16128372619519248221
633830 44 18335129943083287818
6438161 24 9511167540001524721
7808743 9 18411973676992867139

> <PUBCHEM_SHAPE_MULTIPOLES>
457.42
18.71
2.97
1.2
0.68
0.71
-0.05
11.09
4.79
1.56
0.5
-1.77
-0.39
-1.03

> <PUBCHEM_SHAPE_SELFOVERLAP>
980.542

> <PUBCHEM_SHAPE_VOLUME>
254.6

> <PUBCHEM_COORDINATE_TYPE>
2
5
10

$$$$
87406309
  -OEChem-05102415143D

 44 46  0     0  0  0  0  0  0999 V2000
   -2.9093   -2.9132   -1.1402 S   0  0  0  0  0  0  0  0  0  0  0  0
    4.3903    2.6203    0.2846 O   0  0  0  0  0  0  0  0  0  0  0  0
    6.0636    1.3006   -1.4998 O   0  0  0  0  0  0  0  0  0  0  0  0
    0.0291   -0.3069    1.4087 O   0  0  0  0  0  0  0  0  0  0  0  0
    1.3967   -2.1368    1.0521 N   0  0  0  0  0  0  0  0  0  0  0  0
   -0.7215   -2.1483    0.1611 N   0  0  0  0  0  0  0  0  0  0  0  0
   -2.6663   -0.6601    0.1034 N   0  0  0  0  0  0  0  0  0  0  0  0
   -6.6560    2.5006    0.0381 N   0  0  0  0  0  0  0  0  0  0  0  0
    3.4670   -0.8602    0.9141 C   0  0  0  0  0  0  0  0  0  0  0  0
    2.5368   -1.6402    1.7803 C   0  0  0  0  0  0  0  0  0  0  0  0
    3.4975    0.5318    0.9994 C   0  0  0  0  0  0  0  0  0  0  0  0
    4.3074   -1.5226    0.0193 C   0  0  0  0  0  0  0  0  0  0  0  0
    4.3683    1.2613    0.1901 C   0  0  0  0  0  0  0  0  0  0  0  0
    5.2087    0.5989   -0.7047 C   0  0  0  0  0  0  0  0  0  0  0  0
    5.1781   -0.7930   -0.7901 C   0  0  0  0  0  0  0  0  0  0  0  0
    0.2015   -1.4194    0.9164 C   0  0  0  0  0  0  0  0  0  0  0  0
   -3.9332   -0.7000   -0.4455 C   0  0  0  0  0  0  0  0  0  0  0  0
   -4.8566    0.3854   -0.2814 C   0  0  0  0  0  0  0  0  0  0  0  0
   -2.0372   -1.7741   -0.1987 C   0  0  0  0  0  0  0  0  0  0  0  0
   -4.2472   -1.8403   -1.1547 C   0  0  0  0  0  0  0  0  0  0  0  0
   -6.2251    0.1402   -0.2585 C   0  0  0  0  0  0  0  0  0  0  0  0
   -4.3868    1.6870   -0.1447 C   0  0  0  0  0  0  0  0  0  0  0  0
    3.4996    3.2188    1.2242 C   0  0  0  0  0  0  0  0  0  0  0  0
    6.8888    0.5478   -2.3870 C   0  0  0  0  0  0  0  0  0  0  0  0
   -7.0752    1.2224   -0.0977 C   0  0  0  0  0  0  0  0  0  0  0  0
   -5.3191    2.7000    0.0110 C   0  0  0  0  0  0  0  0  0  0  0  0
    3.0581   -2.5061    2.2047 H   0  0  0  0  0  0  0  0  0  0  0  0
    2.1869   -1.0397    2.6282 H   0  0  0  0  0  0  0  0  0  0  0  0
    2.8214    0.9931    1.7112 H   0  0  0  0  0  0  0  0  0  0  0  0
    4.2920   -2.6069   -0.0552 H   0  0  0  0  0  0  0  0  0  0  0  0
    1.4736   -3.0421    0.5988 H   0  0  0  0  0  0  0  0  0  0  0  0
    5.8014   -1.3740   -1.4611 H   0  0  0  0  0  0  0  0  0  0  0  0
   -0.4371   -3.0613   -0.1829 H   0  0  0  0  0  0  0  0  0  0  0  0
   -5.1533   -2.1055   -1.6816 H   0  0  0  0  0  0  0  0  0  0  0  0
   -6.6505   -0.8542   -0.3437 H   0  0  0  0  0  0  0  0  0  0  0  0
   -3.3284    1.9265   -0.1610 H   0  0  0  0  0  0  0  0  0  0  0  0
    3.6502    4.3019    1.1653 H   0  0  0  0  0  0  0  0  0  0  0  0
    3.7363    2.9214    2.2514 H   0  0  0  0  0  0  0  0  0  0  0  0
    2.4522    3.0300    0.9649 H   0  0  0  0  0  0  0  0  0  0  0  0
    7.5036    1.2646   -2.9413 H   0  0  0  0  0  0  0  0  0  0  0  0
    7.5774   -0.1058   -1.8407 H   0  0  0  0  0  0  0  0  0  0  0  0
    6.2932    0.0015   -3.1263 H   0  0  0  0  0  0  0  0  0  0  0  0
   -8.1511    1.0844   -0.0691 H   0  0  0  0  0  0  0  0  0  0  0  0
   -5.0044    3.7326    0.1206 H   0  0  0  0  0  0  0  0  0  0  0  0
  1 19  1  0  0  0  0
  1 20  1  0  0  0  0
  2 13  1  0  0  0  0
  2 23  1  0  0  0  0
  3 14  1  0  0  0  0
  3 24  1  0  0  0  0
  4 16  2  0  0  0  0
  5 10  1  0  0  0  0
  5 16  1  0  0  0  0
  5 31  1  0  0  0  0
  6 16  1  0  0  0  0
  6 19  1  0  0  0  0
  6 33  1  0  0  0  0
  7 17  1  0  0  0  0
  7 19  2  0  0  0  0
  8 25  2  0  0  0  0
  8 26  1  0  0  0  0
  9 10  1  0  0  0  0
  9 11  2  0  0  0  0
  9 12  1  0  0  0  0
 10 27  1  0  0  0  0
 10 28  1  0  0  0  0
 11 13  1  0  0  0  0
 11 29  1  0  0  0  0
 12 15  2  0  0  0  0
 12 30  1  0  0  0  0
 13 14  2  0  0  0  0
 14 15  1  0  0  0  0
 15 32  1  0  0  0  0
 17 18  1  0  0  0  0
 17 20  2  0  0  0  0
 18 21  2  0  0  0  0
 18 22  1  0  0  0  0
 20 34  1  0  0  0  0
 21 25  1  0  0  0  0
 21 35  1  0  0  0  0
 22 26  2  0  0  0  0
 22 36  1  0  0  0  0
 23 37  1  0  0  0  0
 23 38  1  0  0  0  0
 23 39  1  0  0  0  0
 24 40  1  0  0  0  0
 24 41  1  0  0  0  0
 24 42  1  0  0  0  0
 25 43  1  0  0  0  0
 26 44  1  0  0  0  0
M  END
> <PUBCHEM_COMPOUND_CID>
87406309

> <PUBCHEM_CONFORMER_RMSD>
1

> <PUBCHEM_CONFORMER_DIVERSEORDER>
1
8
32
18
72
76
110
82
56
130
107
48
13
87
88
98
135
28
105
2
124
50
103
116
11
19
43
60
83
126
66
55
20
57
136
21
93
34
102
38
51
113
9
36
132
111
100
15
52
39
16
46
71
64
26
121
134
68
85
97
24
5
14
49
90
12
6
63
131
104
123
73
45
3
62
44
120
7
35
86
37
81
99
53
79
58
74
114
17
77
25
80
78
115
95
106
59
4
30
96
65
127
129
40
69
84
137
47
22
41
23
70
117
75
27
122
10
92
94
61
112
54
89
119
29
108
31
138
33
67
101
125
133
128
91
118
109
42

> <PUBCHEM_MMFF94_PARTIAL_CHARGES>
36
1 -0.08
10 0.44
11 -0.15
12 -0.15
13 0.08
14 0.08
15 -0.15
16 0.69
17 0.17
18 0.05
19 0.44
2 -0.36
20 -0.11
21 -0.15
22 -0.15
23 0.28
24 0.28
25 0.16
26 0.16
29 0.15
3 -0.36
30 0.15
31 0.37
32 0.15
33 0.37
34 0.15
35 0.15
36 0.15
4 -0.57
43 0.15
44 0.15
5 -0.73
6 -0.49
7 -0.57
8 -0.62
9 -0.14

> <PUBCHEM_EFFECTIVE_ROTOR_COUNT>
8

> <PUBCHEM_PHARMACOPHORE_FEATURES>
9
1 2 acceptor
1 3 acceptor
1 4 acceptor
1 5 donor
1 6 donor
1 8 acceptor
5 1 7 17 19 20 rings
6 8 18 21 22 25 26 rings
6 9 11 12 13 14 15 rings

> <PUBCHEM_HEAVY_ATOM_COUNT>
26

> <PUBCHEM_ATOM_DEF_STEREO_COUNT>
0

> <PUBCHEM_ATOM_UDEF_STEREO_COUNT>
0

> <PUBCHEM_BOND_DEF_STEREO_COUNT>
0

> <PUBCHEM_BOND_UDEF_STEREO_COUNT>
0

> <PUBCHEM_ISOTOPIC_ATOM_COUNT>
0

> <PUBCHEM_COMPONENT_COUNT>
1

> <PUBCHEM_CACTVS_TAUTO_COUNT>
5

> <PUBCHEM_CONFORMER_ID>
0535B6E500000001

> <PUBCHEM_MMFF94_ENERGY>
77.5718

> <PUBCHEM_FEATURE_SELFOVERLAP>
45.728

> <PUBCHEM_SHAPE_FINGERPRINT>
10 15 13045953416720600030
10378564 45 18131071533039685486
11070050 100 16443058374790194952
11273773 42 18113904887400724391
11991303 11 17417802981404320863
1200032 147 17023193747379378176
12342043 65 14275409571757539315
12390115 104 18059856126628650347
12596602 18 17531245007789894755
13782708 43 14907316716328976303
14528608 73 18409442604982708331
1454969 45 18411971448553550767
14790565 3 18339919325707715955
14840074 17 18040152894874336445
14848178 5 10087639308173220227
14931854 50 18340785779778790836
15001296 14 18335692888599512201
15183329 4 17917999355808269770
15188451 53 9727634986018713383
15210252 30 17895478141633106020
15510800 12 11743842516330054468
15575132 122 18188203188064215253
15685185 35 17460052866536531844
16993089 31 14692281911812625743
19304144 158 17413014749977839616
21315763 87 10881398733770296076
21315764 119 17274829038388038174
21774942 28 18341608253146936336
22061861 79 15841548582990099103
22393880 68 18271803592218806306
23559900 14 17560797762393139826
249057 25 18117532154939466659
3472631 163 18413385428279355159
3610482 184 18335143111189247711
38570 142 18260555501971867978
394071 54 16660649578723063558
508180 173 18341619247988849608
5104073 3 17749096824877980850
54583773 228 18334569145941931109
5718773 13 12679192566107301644
5911458 16 18187655682106198261
59682541 52 15769489821079607207

> <PUBCHEM_SHAPE_MULTIPOLES>
501.39
19.91
3.4
1.47
5.9
1.14
0.29
12.47
7.95
1.78
-0.28
-2.85
-0.24
-1.15

> <PUBCHEM_SHAPE_SELFOVERLAP>
1064.19

> <PUBCHEM_SHAPE_VOLUME>
282.6

> <PUBCHEM_COORDINATE_TYPE>
2
5
10

$$$$
87406734
  -OEChem-05102415143D

 33 35  0     0  0  0  0  0  0999 V2000
   -1.3745    2.9017   -0.7853 S   0  0  0  0  0  0  0  0  0  0  0  0
    4.8608   -1.6015    0.4052 O   0  0  0  0  0  0  0  0  0  0  0  0
    1.3465   -0.4163    1.0886 O   0  0  0  0  0  0  0  0  0  0  0  0
    2.9377    1.2376    0.8118 N   0  0  0  0  0  0  0  0  0  0  0  0
    0.7341    1.6622    0.1587 N   0  0  0  0  0  0  0  0  0  0  0  0
   -1.3691    0.4873    0.1383 N   0  0  0  0  0  0  0  0  0  0  0  0
   -5.7866   -2.0442    0.1214 N   0  0  0  0  0  0  0  0  0  0  0  0
    4.0518    0.4887    1.3460 C   0  0  0  0  0  0  0  0  0  0  0  0
    4.7981   -0.2504    0.2732 C   0  0  0  0  0  0  0  0  0  0  0  0
   -2.6588    0.7791   -0.2612 C   0  0  0  0  0  0  0  0  0  0  0  0
   -3.7201   -0.1789   -0.1314 C   0  0  0  0  0  0  0  0  0  0  0  0
   -0.6064    1.5332   -0.0909 C   0  0  0  0  0  0  0  0  0  0  0  0
    1.6422    0.7183    0.7214 C   0  0  0  0  0  0  0  0  0  0  0  0
    5.4602    0.1555   -0.8623 C   0  0  0  0  0  0  0  0  0  0  0  0
   -2.8566    2.0389   -0.7865 C   0  0  0  0  0  0  0  0  0  0  0  0
   -5.0270    0.2505    0.0712 C   0  0  0  0  0  0  0  0  0  0  0  0
   -3.4452   -1.5397   -0.2078 C   0  0  0  0  0  0  0  0  0  0  0  0
    5.9617   -1.0218   -1.4667 C   0  0  0  0  0  0  0  0  0  0  0  0
    5.5705   -2.0633   -0.6576 C   0  0  0  0  0  0  0  0  0  0  0  0
   -6.0152   -0.7134    0.1902 C   0  0  0  0  0  0  0  0  0  0  0  0
   -4.5042   -2.4237   -0.0763 C   0  0  0  0  0  0  0  0  0  0  0  0
    4.7242    1.2045    1.8301 H   0  0  0  0  0  0  0  0  0  0  0  0
    3.6891   -0.2073    2.1100 H   0  0  0  0  0  0  0  0  0  0  0  0
    3.1098    2.1768    0.4664 H   0  0  0  0  0  0  0  0  0  0  0  0
    5.5689    1.1720   -1.2125 H   0  0  0  0  0  0  0  0  0  0  0  0
    1.1258    2.5642   -0.0984 H   0  0  0  0  0  0  0  0  0  0  0  0
   -3.7549    2.4982   -1.1752 H   0  0  0  0  0  0  0  0  0  0  0  0
   -5.3006    1.2969    0.1556 H   0  0  0  0  0  0  0  0  0  0  0  0
   -2.4419   -1.9208   -0.3691 H   0  0  0  0  0  0  0  0  0  0  0  0
    6.5363   -1.1015   -2.3781 H   0  0  0  0  0  0  0  0  0  0  0  0
    5.7096   -3.1337   -0.6971 H   0  0  0  0  0  0  0  0  0  0  0  0
   -7.0501   -0.4311    0.3533 H   0  0  0  0  0  0  0  0  0  0  0  0
   -4.3431   -3.4954   -0.1295 H   0  0  0  0  0  0  0  0  0  0  0  0
  1 12  1  0  0  0  0
  1 15  1  0  0  0  0
  2  9  1  0  0  0  0
  2 19  1  0  0  0  0
  3 13  2  0  0  0  0
  4  8  1  0  0  0  0
  4 13  1  0  0  0  0
  4 24  1  0  0  0  0
  5 12  1  0  0  0  0
  5 13  1  0  0  0  0
  5 26  1  0  0  0  0
  6 10  1  0  0  0  0
  6 12  2  0  0  0  0
  7 20  2  0  0  0  0
  7 21  1  0  0  0  0
  8  9  1  0  0  0  0
  8 22  1  0  0  0  0
  8 23  1  0  0  0  0
  9 14  2  0  0  0  0
 10 11  1  0  0  0  0
 10 15  2  0  0  0  0
 11 16  2  0  0  0  0
 11 17  1  0  0  0  0
 14 18  1  0  0  0  0
 14 25  1  0  0  0  0
 15 27  1  0  0  0  0
 16 20  1  0  0  0  0
 16 28  1  0  0  0  0
 17 21  2  0  0  0  0
 17 29  1  0  0  0  0
 18 19  2  0  0  0  0
 18 30  1  0  0  0  0
 19 31  1  0  0  0  0
 20 32  1  0  0  0  0
 21 33  1  0  0  0  0
M  END
> <PUBCHEM_COMPOUND_CID>
87406734

> <PUBCHEM_CONFORMER_RMSD>
0.8

> <PUBCHEM_CONFORMER_DIVERSEORDER>
1
23
85
39
20
9
29
66
46
6
112
64
72
103
118
27
49
18
63
56
117
41
73
60
31
54
12
22
100
7
47
25
98
19
11
91
48
8
88
57
71
96
24
10
30
102
26
114
76
82
37
79
15
38
122
61
121
106
67
69
95
75
40
16
92
55
52
110
68
109
13
44
77
42
86
123
78
36
58
101
34
104
33
107
108
74
62
43
83
32
99
4
28
90
3
17
59
65
84
93
51
116
35
14
53
105
50
45
21
87
94
89
120
115
70
5
113
97
80
2
111
119
125
81
124
126

> <PUBCHEM_MMFF94_PARTIAL_CHARGES>
31
1 -0.08
10 0.17
11 0.05
12 0.44
13 0.69
14 -0.15
15 -0.11
16 -0.15
17 -0.15
18 -0.15
19 -0.01
2 -0.28
20 0.16
21 0.16
24 0.37
25 0.15
26 0.37
27 0.15
28 0.15
29 0.15
3 -0.57
30 0.15
31 0.15
32 0.15
33 0.15
4 -0.73
5 -0.49
6 -0.57
7 -0.62
8 0.48
9 -0.04

> <PUBCHEM_EFFECTIVE_ROTOR_COUNT>
6

> <PUBCHEM_PHARMACOPHORE_FEATURES>
8
1 2 acceptor
1 3 acceptor
1 4 donor
1 5 donor
1 7 acceptor
5 1 6 10 12 15 rings
5 2 9 14 18 19 rings
6 7 11 16 17 20 21 rings

> <PUBCHEM_HEAVY_ATOM_COUNT>
21

> <PUBCHEM_ATOM_DEF_STEREO_COUNT>
0

> <PUBCHEM_ATOM_UDEF_STEREO_COUNT>
0

> <PUBCHEM_BOND_DEF_STEREO_COUNT>
0

> <PUBCHEM_BOND_UDEF_STEREO_COUNT>
0

> <PUBCHEM_ISOTOPIC_ATOM_COUNT>
0

> <PUBCHEM_COMPONENT_COUNT>
1

> <PUBCHEM_CACTVS_TAUTO_COUNT>
5

> <PUBCHEM_CONFORMER_ID>
0535B88E00000001

> <PUBCHEM_MMFF94_ENERGY>
33.3663

> <PUBCHEM_FEATURE_SELFOVERLAP>
40.64

> <PUBCHEM_SHAPE_FINGERPRINT>
10042902 136 18337953514459766255
10692045 39 11311514471532667060
11056379 131 18262235513137817237
11089746 13 8430323433099578776
11128504 68 17385447613841146620
11524674 6 17060337422965865255
117890 112 8862940572256169718
11796584 16 18196371417012574966
12422481 6 17489590094848384639
12596602 18 13829838136862314846
12633257 1 15626220255734152916
13402501 40 18343868813834296254
13533116 47 17775283906612703128
13551218 46 18273213136066326831
13673619 4 18272653450050602240
13782708 43 17917987300183522047
13911987 19 14418425364337851456
13955234 65 17702934968254147352
14123256 34 18261117421818849691
14216079 64 18413386562430464855
14251732 14 18335427867863252980
14251751 18 18412267224832314950
14251757 5 18187370960292733434
14251764 30 18272089409032737896
14341114 176 18131069363406215033
14347332 77 18260824852545727400
14420673 8 18412831283246384083
14466204 15 10952052247053881578
14528608 73 16950566562909841948
14556957 393 16226052154214639215
14617045 38 18411140216560698091
14951699 99 10591460829652834586
15537594 2 18040431075563457027
17844677 252 18412546496602267392
1813 80 17821720671741209301
18222031 100 18113896078539084624
193927 3 18260831539825683745
20621476 21 18272938210867243934
21054139 6 17895188875611665610
21267235 1 18334298712766949251
21623969 137 17489871518918314630
21859007 373 13181925544028519993
22765269 38 12757157904798418494
22950370 63 18410576205713204009
2297311 6 18408888425600379773
23016692 55 18408608066950987389
2303208 19 18272369763181356824
23379529 103 18191873537786420307
23522609 53 18122376581617710496
23559900 14 18411128169446568649
268830 7 13901605451757293376
2748736 6 9583525291348772347
2767999 5 10375875164608217195
2838139 119 10665223782555518274
3004659 81 18113617914849939780
3014063 24 17987507281983798239
3089732 80 18343304755990172670
312425 54 17561081457841711587
33382 64 18131636677499868690
335352 9 18335134298886611829
351380 3 18187358848531879379
439807 62 18337112263748037382
441001 317 9007061275122839629
46194498 28 18411982477681855516
465052 167 17917715695463364990
497634 4 18412268302532190773
5104073 3 17988636355691819496
59755656 215 18410007698346414967
59755656 520 18125722275716708977
621550 5 18272645753427653192
6898599 12 17823975632709327877
7237137 82 17676198044636865701
7970288 3 18266737072830016343
8217 86 18408326605175631116
8863177 126 18201997759397951566

> <PUBCHEM_SHAPE_MULTIPOLES>
404.36
16.66
2.66
1.04
8.73
0.26
-0.02
-11.81
-2.4
-2.1
-0.59
1.41
0.09
1.29

> <PUBCHEM_SHAPE_SELFOVERLAP>
862.896

> <PUBCHEM_SHAPE_VOLUME>
226.5

> <PUBCHEM_COORDINATE_TYPE>
2
5
10

$$$$
87406479
  -OEChem-05102415143D

 42 44  0     0  0  0  0  0  0999 V2000
    2.0508    2.8634    1.2415 S   0  0  0  0  0  0  0  0  0  0  0  0
   -1.0017   -0.0313   -0.8144 O   0  0  0  0  0  0  0  0  0  0  0  0
   -2.4501    1.6617   -0.2035 N   0  0  0  0  0  0  0  0  0  0  0  0
   -0.2378    1.8803    0.3138 N   0  0  0  0  0  0  0  0  0  0  0  0
    1.8264    0.5932    0.0257 N   0  0  0  0  0  0  0  0  0  0  0  0
    6.0629   -2.1534   -0.6214 N   0  0  0  0  0  0  0  0  0  0  0  0
   -3.6554    1.0444   -0.7432 C   0  0  0  0  0  0  0  0  0  0  0  0
   -3.9626   -0.3020   -0.0743 C   0  0  0  0  0  0  0  0  0  0  0  0
   -3.4384    0.8492   -2.2552 C   0  0  0  0  0  0  0  0  0  0  0  0
   -4.8192    2.0274   -0.5185 C   0  0  0  0  0  0  0  0  0  0  0  0
   -3.5924   -0.5219    1.2524 C   0  0  0  0  0  0  0  0  0  0  0  0
   -4.6122   -1.3059   -0.7926 C   0  0  0  0  0  0  0  0  0  0  0  0
   -1.1979    1.0604   -0.2856 C   0  0  0  0  0  0  0  0  0  0  0  0
   -3.8716   -1.7456    1.8608 C   0  0  0  0  0  0  0  0  0  0  0  0
   -4.8914   -2.5297   -0.1843 C   0  0  0  0  0  0  0  0  0  0  0  0
   -4.5212   -2.7495    1.1424 C   0  0  0  0  0  0  0  0  0  0  0  0
    1.1500    1.6400    0.4434 C   0  0  0  0  0  0  0  0  0  0  0  0
    3.1570    0.7604    0.3563 C   0  0  0  0  0  0  0  0  0  0  0  0
    4.1425   -0.2277    0.0248 C   0  0  0  0  0  0  0  0  0  0  0  0
    3.4713    1.9287    1.0182 C   0  0  0  0  0  0  0  0  0  0  0  0
    5.4565    0.1530   -0.2243 C   0  0  0  0  0  0  0  0  0  0  0  0
    3.7877   -1.5702   -0.0489 C   0  0  0  0  0  0  0  0  0  0  0  0
    6.3704   -0.8394   -0.5404 C   0  0  0  0  0  0  0  0  0  0  0  0
    4.7763   -2.4855   -0.3727 C   0  0  0  0  0  0  0  0  0  0  0  0
   -3.0144    1.7564   -2.7051 H   0  0  0  0  0  0  0  0  0  0  0  0
   -2.7598    0.0247   -2.4985 H   0  0  0  0  0  0  0  0  0  0  0  0
   -4.3807    0.6648   -2.7848 H   0  0  0  0  0  0  0  0  0  0  0  0
   -4.6238    2.9917   -1.0022 H   0  0  0  0  0  0  0  0  0  0  0  0
   -4.9749    2.2229    0.5495 H   0  0  0  0  0  0  0  0  0  0  0  0
   -5.7599    1.6337   -0.9205 H   0  0  0  0  0  0  0  0  0  0  0  0
   -2.5250    2.5597    0.2653 H   0  0  0  0  0  0  0  0  0  0  0  0
   -3.1040    0.2468    1.8446 H   0  0  0  0  0  0  0  0  0  0  0  0
   -4.9388   -1.1737   -1.8183 H   0  0  0  0  0  0  0  0  0  0  0  0
   -3.5878   -1.9154    2.8953 H   0  0  0  0  0  0  0  0  0  0  0  0
   -5.4020   -3.3099   -0.7414 H   0  0  0  0  0  0  0  0  0  0  0  0
   -4.7407   -3.7015    1.6169 H   0  0  0  0  0  0  0  0  0  0  0  0
   -0.5482    2.7617    0.7131 H   0  0  0  0  0  0  0  0  0  0  0  0
    4.4223    2.2845    1.3898 H   0  0  0  0  0  0  0  0  0  0  0  0
    5.7896    1.1851   -0.1981 H   0  0  0  0  0  0  0  0  0  0  0  0
    2.7762   -1.9142    0.1417 H   0  0  0  0  0  0  0  0  0  0  0  0
    7.4070   -0.5946   -0.7476 H   0  0  0  0  0  0  0  0  0  0  0  0
    4.5514   -3.5447   -0.4419 H   0  0  0  0  0  0  0  0  0  0  0  0
  1 17  1  0  0  0  0
  1 20  1  0  0  0  0
  2 13  2  0  0  0  0
  3  7  1  0  0  0  0
  3 13  1  0  0  0  0
  3 31  1  0  0  0  0
  4 13  1  0  0  0  0
  4 17  1  0  0  0  0
  4 37  1  0  0  0  0
  5 17  2  0  0  0  0
  5 18  1  0  0  0  0
  6 23  2  0  0  0  0
  6 24  1  0  0  0  0
  7  8  1  0  0  0  0
  7  9  1  0  0  0  0
  7 10  1  0  0  0  0
  8 11  2  0  0  0  0
  8 12  1  0  0  0  0
  9 25  1  0  0  0  0
  9 26  1  0  0  0  0
  9 27  1  0  0  0  0
 10 28  1  0  0  0  0
 10 29  1  0  0  0  0
 10 30  1  0  0  0  0
 11 14  1  0  0  0  0
 11 32  1  0  0  0  0
 12 15  2  0  0  0  0
 12 33  1  0  0  0  0
 14 16  2  0  0  0  0
 14 34  1  0  0  0  0
 15 16  1  0  0  0  0
 15 35  1  0  0  0  0
 16 36  1  0  0  0  0
 18 19  1  0  0  0  0
 18 20  2  0  0  0  0
 19 21  2  0  0  0  0
 19 22  1  0  0  0  0
 20 38  1  0  0  0  0
 21 23  1  0  0  0  0
 21 39  1  0  0  0  0
 22 24  2  0  0  0  0
 22 40  1  0  0  0  0
 23 41  1  0  0  0  0
 24 42  1  0  0  0  0
M  END
> <PUBCHEM_COMPOUND_CID>
87406479

> <PUBCHEM_CONFORMER_RMSD>
0.8

> <PUBCHEM_CONFORMER_DIVERSEORDER>
2
45
12
30
43
40
9
7
39
47
33
11
17
35
46
8
14
20
36
37
48
18
13
5
24
15
26
16
34
6
41
32
27
28
42
29
44
10
1
23
31
22
38
21
19
3
25
4

> <PUBCHEM_MMFF94_PARTIAL_CHARGES>
34
1 -0.08
11 -0.15
12 -0.15
13 0.69
14 -0.15
15 -0.15
16 -0.15
17 0.44
18 0.17
19 0.05
2 -0.57
20 -0.11
21 -0.15
22 -0.15
23 0.16
24 0.16
3 -0.73
31 0.37
32 0.15
33 0.15
34 0.15
35 0.15
36 0.15
37 0.37
38 0.15
39 0.15
4 -0.49
40 0.15
41 0.15
42 0.15
5 -0.57
6 -0.62
7 0.44
8 -0.14

> <PUBCHEM_EFFECTIVE_ROTOR_COUNT>
6

> <PUBCHEM_PHARMACOPHORE_FEATURES>
8
1 2 acceptor
1 3 donor
1 4 donor
1 6 acceptor
3 7 9 10 hydrophobe
5 1 5 17 18 20 rings
6 6 19 21 22 23 24 rings
6 8 11 12 14 15 16 rings

> <PUBCHEM_HEAVY_ATOM_COUNT>
24

> <PUBCHEM_ATOM_DEF_STEREO_COUNT>
0

> <PUBCHEM_ATOM_UDEF_STEREO_COUNT>
0

> <PUBCHEM_BOND_DEF_STEREO_COUNT>
0

> <PUBCHEM_BOND_UDEF_STEREO_COUNT>
0

> <PUBCHEM_ISOTOPIC_ATOM_COUNT>
0

> <PUBCHEM_COMPONENT_COUNT>
1

> <PUBCHEM_CACTVS_TAUTO_COUNT>
5

> <PUBCHEM_CONFORMER_ID>
0535B78F00000002

> <PUBCHEM_MMFF94_ENERGY>
66.9133

> <PUBCHEM_FEATURE_SELFOVERLAP>
40.651

> <PUBCHEM_SHAPE_FINGERPRINT>
10928967 22 18130791191417669414
11370993 144 18413111688744479489
11405975 8 18342458140785027361
11545043 162 18407758148784167889
11796584 16 18261106319143435216
12107183 9 18058466334782031905
12422481 6 16199883743440956972
12596602 18 16702018724918924730
12633257 1 15339116870368740088
12643181 29 18263358110251427058
13103583 49 17774459221019720433
13402501 40 18408328799667250842
13533116 47 18057604467878784587
13941219 33 18340219513804240139
13955234 65 17915734487201134792
14251751 18 18334020492705678950
14420673 8 18341054008242676959
14461889 52 18337946888110868008
14910302 57 18114169844223267293
14950920 106 17488753401255004579
15361156 5 18260555562612898685
15510800 12 18043531818550183355
15537594 2 17167861937610543537
17780758 139 17918000460005196963
17844677 252 18343023319372794252
17870717 6 17821723962324136143
21033650 10 17023179379680597412
21065201 7 18187915197094641089
21623969 137 18201723955459847622
21682296 61 18272937115334098287
221490 88 18411980282389025672
22393880 68 18187636999019189211
23424784 1240 18271257027619049078
23559900 14 18335413578059270157
25122255 55 18411142436989932670
2748736 6 10953745547186248734
2916195 48 9583514317728033812
3004659 81 18263081033911739918
3089732 80 18408889572172362922
314194 84 18060132133689746628
3421961 26 18272929453750778208
4015057 19 18201137920157748733
4073 2 18408321090459112112
439807 62 18333454239685302827
44062 13 18334856091551681989
46194498 28 17968377974177696420
465052 167 17989207032517953916
484985 159 18342464716695942643
484989 97 18337401500305677850
508706 21 18040434412632103275
5104073 3 17988924478666221392
5486654 36 18271814479591948769
59755656 520 18264485093134093813
6431902 208 18342177756587318370
6608658 132 15575258905947300245
7495541 125 18412546531146095740
7918774 8 17916604050458246926
7970288 3 18270680840871742454
8863177 126 18340488966877708650
9709674 26 18335697299572544873

> <PUBCHEM_SHAPE_MULTIPOLES>
471.96
15.77
3.25
1.37
10.4
0.5
0.01
10.07
1.89
-0.28
-0.71
-1.62
-0.04
3.04

> <PUBCHEM_SHAPE_SELFOVERLAP>
1006.345

> <PUBCHEM_SHAPE_VOLUME>
264.3

> <PUBCHEM_COORDINATE_TYPE>
2
5
10

$$$$
87406406
  -OEChem-05102415143D

 35 37  0     0  0  0  0  0  0999 V2000
   -1.6805    2.8625    0.9680 S   0  0  0  0  0  0  0  0  0  0  0  0
    1.0442   -0.2449   -1.2329 O   0  0  0  0  0  0  0  0  0  0  0  0
    2.6104    1.4185   -0.8807 N   0  0  0  0  0  0  0  0  0  0  0  0
    0.4210    1.7438   -0.1300 N   0  0  0  0  0  0  0  0  0  0  0  0
   -1.6567    0.5244   -0.1343 N   0  0  0  0  0  0  0  0  0  0  0  0
    5.9150   -1.6647    1.3037 N   0  0  0  0  0  0  0  0  0  0  0  0
   -6.0198   -2.0996   -0.1717 N   0  0  0  0  0  0  0  0  0  0  0  0
    3.7213    0.7367   -1.5040 C   0  0  0  0  0  0  0  0  0  0  0  0
    4.4877   -0.1022   -0.5226 C   0  0  0  0  0  0  0  0  0  0  0  0
   -2.9387    0.7572    0.3244 C   0  0  0  0  0  0  0  0  0  0  0  0
   -3.9842   -0.2122    0.1560 C   0  0  0  0  0  0  0  0  0  0  0  0
   -0.9080    1.5668    0.1500 C   0  0  0  0  0  0  0  0  0  0  0  0
    1.3290    0.8652   -0.7901 C   0  0  0  0  0  0  0  0  0  0  0  0
    5.3455    0.5003    0.3910 C   0  0  0  0  0  0  0  0  0  0  0  0
    4.3428   -1.4851   -0.5240 C   0  0  0  0  0  0  0  0  0  0  0  0
   -3.1446    1.9695    0.9488 C   0  0  0  0  0  0  0  0  0  0  0  0
   -5.3055    0.2015    0.0272 C   0  0  0  0  0  0  0  0  0  0  0  0
   -3.6795   -1.5685    0.1212 C   0  0  0  0  0  0  0  0  0  0  0  0
    6.0300   -0.3179    1.2750 C   0  0  0  0  0  0  0  0  0  0  0  0
    5.0721   -2.2146    0.4011 C   0  0  0  0  0  0  0  0  0  0  0  0
   -6.2773   -0.7730   -0.1331 C   0  0  0  0  0  0  0  0  0  0  0  0
   -4.7242   -2.4637   -0.0433 C   0  0  0  0  0  0  0  0  0  0  0  0
    4.3781    1.4999   -1.9368 H   0  0  0  0  0  0  0  0  0  0  0  0
    3.3499    0.1256   -2.3349 H   0  0  0  0  0  0  0  0  0  0  0  0
    2.7746    2.3331   -0.4715 H   0  0  0  0  0  0  0  0  0  0  0  0
    0.8029    2.6325    0.1824 H   0  0  0  0  0  0  0  0  0  0  0  0
    5.4819    1.5760    0.4191 H   0  0  0  0  0  0  0  0  0  0  0  0
    3.6820   -1.9891   -1.2209 H   0  0  0  0  0  0  0  0  0  0  0  0
   -4.0390    2.3786    1.3981 H   0  0  0  0  0  0  0  0  0  0  0  0
   -5.6027    1.2449    0.0302 H   0  0  0  0  0  0  0  0  0  0  0  0
   -2.6640   -1.9378    0.2220 H   0  0  0  0  0  0  0  0  0  0  0  0
    6.7112    0.1028    2.0074 H   0  0  0  0  0  0  0  0  0  0  0  0
    4.9942   -3.2961    0.4415 H   0  0  0  0  0  0  0  0  0  0  0  0
   -7.3225   -0.5027   -0.2421 H   0  0  0  0  0  0  0  0  0  0  0  0
   -4.5399   -3.5325   -0.0759 H   0  0  0  0  0  0  0  0  0  0  0  0
  1 12  1  0  0  0  0
  1 16  1  0  0  0  0
  2 13  2  0  0  0  0
  3  8  1  0  0  0  0
  3 13  1  0  0  0  0
  3 25  1  0  0  0  0
  4 12  1  0  0  0  0
  4 13  1  0  0  0  0
  4 26  1  0  0  0  0
  5 10  1  0  0  0  0
  5 12  2  0  0  0  0
  6 19  2  0  0  0  0
  6 20  1  0  0  0  0
  7 21  2  0  0  0  0
  7 22  1  0  0  0  0
  8  9  1  0  0  0  0
  8 23  1  0  0  0  0
  8 24  1  0  0  0  0
  9 14  2  0  0  0  0
  9 15  1  0  0  0  0
 10 11  1  0  0  0  0
 10 16  2  0  0  0  0
 11 17  2  0  0  0  0
 11 18  1  0  0  0  0
 14 19  1  0  0  0  0
 14 27  1  0  0  0  0
 15 20  2  0  0  0  0
 15 28  1  0  0  0  0
 16 29  1  0  0  0  0
 17 21  1  0  0  0  0
 17 30  1  0  0  0  0
 18 22  2  0  0  0  0
 18 31  1  0  0  0  0
 19 32  1  0  0  0  0
 20 33  1  0  0  0  0
 21 34  1  0  0  0  0
 22 35  1  0  0  0  0
M  END
> <PUBCHEM_COMPOUND_CID>
87406406

> <PUBCHEM_CONFORMER_RMSD>
0.8

> <PUBCHEM_CONFORMER_DIVERSEORDER>
1
10
14
38
45
26
11
59
24
40
56
19
61
23
16
49
58
7
31
64
42
28
21
60
3
43
57
2
34
6
13
37
39
8
29
52
17
20
48
5
35
18
33
4
50
9
30
41
47
15
51
32
22
63
27
12
46
36
25
54
62
53
44
55

> <PUBCHEM_MMFF94_PARTIAL_CHARGES>
33
1 -0.08
10 0.17
11 0.05
12 0.44
13 0.69
14 -0.15
15 -0.15
16 -0.11
17 -0.15
18 -0.15
19 0.16
2 -0.57
20 0.16
21 0.16
22 0.16
25 0.37
26 0.37
27 0.15
28 0.15
29 0.15
3 -0.73
30 0.15
31 0.15
32 0.15
33 0.15
34 0.15
35 0.15
4 -0.49
5 -0.57
6 -0.62
7 -0.62
8 0.44
9 -0.14

> <PUBCHEM_EFFECTIVE_ROTOR_COUNT>
6

> <PUBCHEM_PHARMACOPHORE_FEATURES>
8
1 2 acceptor
1 3 donor
1 4 donor
1 6 acceptor
1 7 acceptor
5 1 5 10 12 16 rings
6 6 9 14 15 19 20 rings
6 7 11 17 18 21 22 rings

> <PUBCHEM_HEAVY_ATOM_COUNT>
22

> <PUBCHEM_ATOM_DEF_STEREO_COUNT>
0

> <PUBCHEM_ATOM_UDEF_STEREO_COUNT>
0

> <PUBCHEM_BOND_DEF_STEREO_COUNT>
0

> <PUBCHEM_BOND_UDEF_STEREO_COUNT>
0

> <PUBCHEM_ISOTOPIC_ATOM_COUNT>
0

> <PUBCHEM_COMPONENT_COUNT>
1

> <PUBCHEM_CACTVS_TAUTO_COUNT>
5

> <PUBCHEM_CONFORMER_ID>
0535B74600000001

> <PUBCHEM_MMFF94_ENERGY>
48.2537

> <PUBCHEM_FEATURE_SELFOVERLAP>
40.64

> <PUBCHEM_SHAPE_FINGERPRINT>
10 15 17560795559359551928
10378564 45 11674875581459375856
10571361 74 18334569118885977642
10753850 27 18333450967389150009
10803635 8 18187361035224023653
10912923 1 18335997406123056556
10939801 23 18199466752529415292
11809386 21 18334860520074427577
12342043 65 16485316966306873236
12523318 42 18201999889342976153
12596602 18 18343299233131254608
12839892 36 18272370832654853950
13533116 47 18333733541888356216
13885169 86 10591755519478874275
13914758 101 17749387019302771021
14211702 104 18408893927105709602
14251740 57 18270687463853497670
14251751 18 18342173371203838650
14251752 14 18113334194401931509
14347332 77 18334294262569258157
14848178 5 18334011692280603478
15183329 4 13334732401871428660
15188451 53 18408878517205494144
15250474 111 18335988596912692402
17349148 13 18187094935702744084
17857418 61 18335140894837851214
17959699 21 9439396939572050924
18222031 100 18113908135060657876
18785283 64 16629667591631328520
20028762 73 18335981983191266066
20374829 77 18341618152856337493
20567600 70 18340486784733284720
20843269 155 18340203093506613063
21315763 87 16988565714419394103
21728266 224 18411139117006592961
22061861 79 15863791698951297146
22079108 93 14189573039728428677
2215653 11 14634870842626047160
23198884 109 15719391742249677949
23559900 14 18340479076037719489
29717793 49 17240483611088594588
3004659 81 18335148617347305620
312425 54 17916876690212404370
32948 21 11314312754653213660
3298306 158 13118002206049392760
339767 52 18411415116116305063
3472631 163 9151169861538569464
3882209 13 16696638943637558831
3886686 26 17478616707105514858
4058900 60 8502113880293021637
439807 62 18115875268995946219
5085150 59 18271520915010131071
5104073 3 17774164487800720154
5283384 97 17095515155035121090
531348 171 17822568314308539117
559249 180 18334294232857648409
5718773 13 18198057178976788103
5924683 9 18340208496707132497
59682541 35 17988916817166855306
59682541 52 15430302638267394763
60123966 16 14996573940489860646
6438161 24 18337947996033432487
6679774 75 17261574683741453968
67856867 119 18337113474712751572
960060 61 16153437134168338686
96874 4 18187917370501255906

> <PUBCHEM_SHAPE_MULTIPOLES>
425.82
17.48
2.73
1.11
5
0.03
-0.02
-11.6
3.09
-2.05
0.59
1.5
0.16
-1.53

> <PUBCHEM_SHAPE_SELFOVERLAP>
908.264

> <PUBCHEM_SHAPE_VOLUME>
237.7

> <PUBCHEM_COORDINATE_TYPE>
2
5
10

$$$$
87405803
  -OEChem-05102415143D

 33 35  0     0  0  0  0  0  0999 V2000
    5.3932    2.1711    0.0687 Cl  0  0  0  0  0  0  0  0  0  0  0  0
   -1.5893    2.9415    0.1307 S   0  0  0  0  0  0  0  0  0  0  0  0
    1.0298   -0.9197   -0.0415 O   0  0  0  0  0  0  0  0  0  0  0  0
    2.7501    0.6687    0.0197 N   0  0  0  0  0  0  0  0  0  0  0  0
    0.5517    1.3673    0.0572 N   0  0  0  0  0  0  0  0  0  0  0  0
   -1.6815    0.3604    0.0222 N   0  0  0  0  0  0  0  0  0  0  0  0
   -6.2787   -1.8241   -0.0532 N   0  0  0  0  0  0  0  0  0  0  0  0
   -2.9824    0.8244    0.0458 C   0  0  0  0  0  0  0  0  0  0  0  0
   -4.1002   -0.0738    0.0121 C   0  0  0  0  0  0  0  0  0  0  0  0
    3.9063   -0.1164   -0.0177 C   0  0  0  0  0  0  0  0  0  0  0  0
   -0.8631    1.3881    0.0629 C   0  0  0  0  0  0  0  0  0  0  0  0
   -3.1326    2.1941    0.1041 C   0  0  0  0  0  0  0  0  0  0  0  0
    1.3993    0.2491    0.0068 C   0  0  0  0  0  0  0  0  0  0  0  0
   -5.2991    0.3254   -0.5683 C   0  0  0  0  0  0  0  0  0  0  0  0
   -3.9893   -1.3471    0.5598 C   0  0  0  0  0  0  0  0  0  0  0  0
    5.1770    0.4586   -0.0007 C   0  0  0  0  0  0  0  0  0  0  0  0
    3.7690   -1.5033   -0.0759 C   0  0  0  0  0  0  0  0  0  0  0  0
    6.3105   -0.3533   -0.0420 C   0  0  0  0  0  0  0  0  0  0  0  0
    4.9025   -2.3152   -0.1172 C   0  0  0  0  0  0  0  0  0  0  0  0
    6.1733   -1.7403   -0.1002 C   0  0  0  0  0  0  0  0  0  0  0  0
   -6.3488   -0.5790   -0.5754 C   0  0  0  0  0  0  0  0  0  0  0  0
   -5.0976   -2.1766    0.5021 C   0  0  0  0  0  0  0  0  0  0  0  0
   -4.0305    2.7953    0.1443 H   0  0  0  0  0  0  0  0  0  0  0  0
    2.9080    1.6725    0.0611 H   0  0  0  0  0  0  0  0  0  0  0  0
    0.9819    2.2872    0.0945 H   0  0  0  0  0  0  0  0  0  0  0  0
    2.8304   -2.0359   -0.0929 H   0  0  0  0  0  0  0  0  0  0  0  0
   -5.4409    1.2988   -1.0258 H   0  0  0  0  0  0  0  0  0  0  0  0
   -3.0755   -1.7003    1.0268 H   0  0  0  0  0  0  0  0  0  0  0  0
    7.3080    0.0787   -0.0298 H   0  0  0  0  0  0  0  0  0  0  0  0
    4.7975   -3.3955   -0.1625 H   0  0  0  0  0  0  0  0  0  0  0  0
    7.0558   -2.3726   -0.1323 H   0  0  0  0  0  0  0  0  0  0  0  0
   -7.3038   -0.3183   -1.0196 H   0  0  0  0  0  0  0  0  0  0  0  0
   -5.0633   -3.1791    0.9160 H   0  0  0  0  0  0  0  0  0  0  0  0
  1 16  1  0  0  0  0
  2 11  1  0  0  0  0
  2 12  1  0  0  0  0
  3 13  2  0  0  0  0
  4 10  1  0  0  0  0
  4 13  1  0  0  0  0
  4 24  1  0  0  0  0
  5 11  1  0  0  0  0
  5 13  1  0  0  0  0
  5 25  1  0  0  0  0
  6  8  1  0  0  0  0
  6 11  2  0  0  0  0
  7 21  2  0  0  0  0
  7 22  1  0  0  0  0
  8  9  1  0  0  0  0
  8 12  2  0  0  0  0
  9 14  2  0  0  0  0
  9 15  1  0  0  0  0
 10 16  1  0  0  0  0
 10 17  2  0  0  0  0
 12 23  1  0  0  0  0
 14 21  1  0  0  0  0
 14 27  1  0  0  0  0
 15 22  2  0  0  0  0
 15 28  1  0  0  0  0
 16 18  2  0  0  0  0
 17 19  1  0  0  0  0
 17 26  1  0  0  0  0
 18 20  1  0  0  0  0
 18 29  1  0  0  0  0
 19 20  2  0  0  0  0
 19 30  1  0  0  0  0
 20 31  1  0  0  0  0
 21 32  1  0  0  0  0
 22 33  1  0  0  0  0
M  END
> <PUBCHEM_COMPOUND_CID>
87405803

> <PUBCHEM_CONFORMER_RMSD>
0.8

> <PUBCHEM_CONFORMER_DIVERSEORDER>
1
14
10
12
21
20
11
7
22
16
6
18
4
2
23
17
3
5
15
19
13
9
8

> <PUBCHEM_MMFF94_PARTIAL_CHARGES>
33
1 -0.18
10 0.12
11 0.44
12 -0.11
13 0.69
14 -0.15
15 -0.15
16 0.18
17 -0.15
18 -0.15
19 -0.15
2 -0.08
20 -0.15
21 0.16
22 0.16
23 0.15
24 0.37
25 0.37
26 0.15
27 0.15
28 0.15
29 0.15
3 -0.57
30 0.15
31 0.15
32 0.15
33 0.15
4 -0.55
5 -0.49
6 -0.57
7 -0.62
8 0.17
9 0.05

> <PUBCHEM_EFFECTIVE_ROTOR_COUNT>
5

> <PUBCHEM_PHARMACOPHORE_FEATURES>
7
1 3 acceptor
1 4 donor
1 5 donor
1 7 acceptor
5 2 6 8 11 12 rings
6 10 16 17 18 19 20 rings
6 7 9 14 15 21 22 rings

> <PUBCHEM_HEAVY_ATOM_COUNT>
22

> <PUBCHEM_ATOM_DEF_STEREO_COUNT>
0

> <PUBCHEM_ATOM_UDEF_STEREO_COUNT>
0

> <PUBCHEM_BOND_DEF_STEREO_COUNT>
0

> <PUBCHEM_BOND_UDEF_STEREO_COUNT>
0

> <PUBCHEM_ISOTOPIC_ATOM_COUNT>
0

> <PUBCHEM_COMPONENT_COUNT>
1

> <PUBCHEM_CACTVS_TAUTO_COUNT>
5

> <PUBCHEM_CONFORMER_ID>
0535B4EB00000001

> <PUBCHEM_MMFF94_ENERGY>
58.3964

> <PUBCHEM_FEATURE_SELFOVERLAP>
35.571

> <PUBCHEM_SHAPE_FINGERPRINT>
10 15 18342727556083823688
10595046 47 18409451367259421376
10835480 77 18408877447569571533
11315181 36 18202003231460574041
11524674 6 16486971804452826423
12107183 9 17472980597764118984
12166972 35 17894633668709078916
12516196 113 18342737442302226353
12633257 1 16200147737795205949
12760667 363 18413671305892650651
13073987 5 18272368642701541784
13167823 11 18339641149134097526
13288520 33 18411136931569703373
13402501 40 18411983567854579011
13533116 47 18412545435871640232
13685833 64 18408888473193082307
14211702 104 18341620269726997710
14251732 16 18412544336275402096
14461889 52 18339072787827761184
14848160 23 18335419071163699095
14931854 50 17967520295321574867
15183329 4 15357693093782177295
15196674 1 18411138000541858328
15250474 111 18043804295343445090
15352361 1 18410575098112424771
15927050 60 17551791847381404628
17492 89 18197781003730861398
17844677 252 18340493283488763056
17857418 61 18409449163344930754
18222031 100 17530685399025857636
18335252 98 18337113474822735274
20028762 73 18341330016132942230
21033650 10 16877934993901461613
21054139 6 18040997319852044986
21150785 3 17895202112663662734
21236236 1 18341614772511464225
21267235 1 18411705382658708703
21623969 137 17846781784749762694
23198884 109 15140676973818531599
23402539 116 18334857199468745061
23424784 1240 18200324212374873046
23522609 53 18057072226673427025
23559900 14 18337664330497047297
3004659 81 18040713683915550579
314194 84 18131063861531665340
329604 57 18413673508752249488
335352 9 18409726258684121021
4073 2 18187369852053410618
4214541 1 18338798893052083008
4325135 7 18410856581753092268
465052 167 18202847643426514062
474229 33 18342176665459884070
497634 4 18335984173101984005
5104073 3 18201154356638420840
559249 180 18411136901715870405
59682541 35 18201145629950365722
59755656 215 18334294249341809042
6431902 208 18410573998421975207
7495541 125 17846774114148973632
7970288 3 18339641265193985143
999808 66 17967825985482013659

> <PUBCHEM_SHAPE_MULTIPOLES>
432.68
18.69
2.78
0.67
3.51
0.65
0
-9.37
-1.17
-0.22
0.21
-0.28
-0.03
0.43

> <PUBCHEM_SHAPE_SELFOVERLAP>
919.449

> <PUBCHEM_SHAPE_VOLUME>
243.1

> <PUBCHEM_COORDINATE_TYPE>
2
5
10

$$$$
87406442
  -OEChem-05102415143D

 42 45  0     0  0  0  0  0  0999 V2000
   -2.4347   -2.9285   -0.5396 S   0  0  0  0  0  0  0  0  0  0  0  0
   -0.0730    0.6137    1.4094 O   0  0  0  0  0  0  0  0  0  0  0  0
    1.6147   -0.9669    1.3911 N   0  0  0  0  0  0  0  0  0  0  0  0
   -0.4496   -1.5394    0.5532 N   0  0  0  0  0  0  0  0  0  0  0  0
   -2.6324   -0.4723    0.2415 N   0  0  0  0  0  0  0  0  0  0  0  0
   -7.1310    1.8307   -0.3668 N   0  0  0  0  0  0  0  0  0  0  0  0
    3.3817    0.6562    0.9699 C   0  0  0  0  0  0  0  0  0  0  0  0
    4.3534    0.0742    0.1395 C   0  0  0  0  0  0  0  0  0  0  0  0
    5.0315    0.8823   -0.8039 C   0  0  0  0  0  0  0  0  0  0  0  0
    2.6286   -0.1404    1.9898 C   0  0  0  0  0  0  0  0  0  0  0  0
    3.0831    2.0155    0.8716 C   0  0  0  0  0  0  0  0  0  0  0  0
    4.6668   -1.2921    0.2246 C   0  0  0  0  0  0  0  0  0  0  0  0
    4.7181    2.2487   -0.8890 C   0  0  0  0  0  0  0  0  0  0  0  0
    3.7499    2.8101   -0.0560 C   0  0  0  0  0  0  0  0  0  0  0  0
    6.0032    0.3003   -1.6343 C   0  0  0  0  0  0  0  0  0  0  0  0
    5.6349   -1.8536   -0.6082 C   0  0  0  0  0  0  0  0  0  0  0  0
    6.3019   -1.0589   -1.5359 C   0  0  0  0  0  0  0  0  0  0  0  0
    0.3095   -0.5220    1.1383 C   0  0  0  0  0  0  0  0  0  0  0  0
   -3.8597   -0.8487   -0.2683 C   0  0  0  0  0  0  0  0  0  0  0  0
   -1.8043   -1.4891    0.1497 C   0  0  0  0  0  0  0  0  0  0  0  0
   -4.9692    0.0599   -0.3017 C   0  0  0  0  0  0  0  0  0  0  0  0
   -3.9459   -2.1423   -0.7388 C   0  0  0  0  0  0  0  0  0  0  0  0
   -6.2699   -0.4228   -0.2092 C   0  0  0  0  0  0  0  0  0  0  0  0
   -4.7481    1.4270   -0.4266 C   0  0  0  0  0  0  0  0  0  0  0  0
   -7.3066    0.4956   -0.2463 C   0  0  0  0  0  0  0  0  0  0  0  0
   -5.8530    2.2628   -0.4539 C   0  0  0  0  0  0  0  0  0  0  0  0
    3.2999   -0.7795    2.5736 H   0  0  0  0  0  0  0  0  0  0  0  0
    2.1481    0.5210    2.7216 H   0  0  0  0  0  0  0  0  0  0  0  0
    2.3316    2.4726    1.5100 H   0  0  0  0  0  0  0  0  0  0  0  0
    4.1823   -1.9597    0.9307 H   0  0  0  0  0  0  0  0  0  0  0  0
    5.2267    2.8889   -1.6069 H   0  0  0  0  0  0  0  0  0  0  0  0
    3.5168    3.8682   -0.1324 H   0  0  0  0  0  0  0  0  0  0  0  0
    6.5370    0.9024   -2.3666 H   0  0  0  0  0  0  0  0  0  0  0  0
    1.8571   -1.9185    1.1334 H   0  0  0  0  0  0  0  0  0  0  0  0
    5.8689   -2.9116   -0.5322 H   0  0  0  0  0  0  0  0  0  0  0  0
    7.0556   -1.4967   -2.1839 H   0  0  0  0  0  0  0  0  0  0  0  0
    0.0038   -2.4336    0.3870 H   0  0  0  0  0  0  0  0  0  0  0  0
   -4.7778   -2.6656   -1.1896 H   0  0  0  0  0  0  0  0  0  0  0  0
   -6.5044   -1.4757   -0.0938 H   0  0  0  0  0  0  0  0  0  0  0  0
   -3.7513    1.8488   -0.5062 H   0  0  0  0  0  0  0  0  0  0  0  0
   -8.3394    0.1710   -0.1738 H   0  0  0  0  0  0  0  0  0  0  0  0
   -5.7347    3.3370   -0.5509 H   0  0  0  0  0  0  0  0  0  0  0  0
  1 20  1  0  0  0  0
  1 22  1  0  0  0  0
  2 18  2  0  0  0  0
  3 10  1  0  0  0  0
  3 18  1  0  0  0  0
  3 34  1  0  0  0  0
  4 18  1  0  0  0  0
  4 20  1  0  0  0  0
  4 37  1  0  0  0  0
  5 19  1  0  0  0  0
  5 20  2  0  0  0  0
  6 25  2  0  0  0  0
  6 26  1  0  0  0  0
  7  8  1  0  0  0  0
  7 10  1  0  0  0  0
  7 11  2  0  0  0  0
  8  9  1  0  0  0  0
  8 12  2  0  0  0  0
  9 13  1  0  0  0  0
  9 15  2  0  0  0  0
 10 27  1  0  0  0  0
 10 28  1  0  0  0  0
 11 14  1  0  0  0  0
 11 29  1  0  0  0  0
 12 16  1  0  0  0  0
 12 30  1  0  0  0  0
 13 14  2  0  0  0  0
 13 31  1  0  0  0  0
 14 32  1  0  0  0  0
 15 17  1  0  0  0  0
 15 33  1  0  0  0  0
 16 17  2  0  0  0  0
 16 35  1  0  0  0  0
 17 36  1  0  0  0  0
 19 21  1  0  0  0  0
 19 22  2  0  0  0  0
 21 23  2  0  0  0  0
 21 24  1  0  0  0  0
 22 38  1  0  0  0  0
 23 25  1  0  0  0  0
 23 39  1  0  0  0  0
 24 26  2  0  0  0  0
 24 40  1  0  0  0  0
 25 41  1  0  0  0  0
 26 42  1  0  0  0  0
M  END
> <PUBCHEM_COMPOUND_CID>
87406442

> <PUBCHEM_CONFORMER_RMSD>
0.8

> <PUBCHEM_CONFORMER_DIVERSEORDER>
1
90
43
125
24
57
139
14
130
129
59
79
155
122
8
161
11
128
100
63
96
98
65
160
19
119
117
102
107
47
149
42
146
37
77
104
21
48
106
20
36
75
140
118
69
91
45
12
124
108
156
151
64
132
126
16
115
143
142
78
41
145
120
121
99
131
83
109
82
133
56
10
51
6
127
67
44
72
97
114
35
22
53
134
81
40
25
55
5
29
30
31
152
58
76
84
116
138
87
33
4
147
32
60
94
137
71
89
13
46
38
2
62
141
85
88
101
80
68
150
135
148
113
105
70
112
144
92
49
50
15
34
103
153
26
61
52
3
136
28
157
86
66
27
23
123
18
159
110
73
111
154
158
7
95
74
17
39
93
9
54

> <PUBCHEM_MMFF94_PARTIAL_CHARGES>
38
1 -0.08
10 0.44
11 -0.15
12 -0.15
13 -0.15
14 -0.15
15 -0.15
16 -0.15
17 -0.15
18 0.69
19 0.17
2 -0.57
20 0.44
21 0.05
22 -0.11
23 -0.15
24 -0.15
25 0.16
26 0.16
29 0.15
3 -0.73
30 0.15
31 0.15
32 0.15
33 0.15
34 0.37
35 0.15
36 0.15
37 0.37
38 0.15
39 0.15
4 -0.49
40 0.15
41 0.15
42 0.15
5 -0.57
6 -0.62
7 -0.14

> <PUBCHEM_EFFECTIVE_ROTOR_COUNT>
6

> <PUBCHEM_PHARMACOPHORE_FEATURES>
8
1 2 acceptor
1 3 donor
1 4 donor
1 6 acceptor
5 1 5 19 20 22 rings
6 6 21 23 24 25 26 rings
6 7 8 9 11 13 14 rings
6 8 9 12 15 16 17 rings

> <PUBCHEM_HEAVY_ATOM_COUNT>
26

> <PUBCHEM_ATOM_DEF_STEREO_COUNT>
0

> <PUBCHEM_ATOM_UDEF_STEREO_COUNT>
0

> <PUBCHEM_BOND_DEF_STEREO_COUNT>
0

> <PUBCHEM_BOND_UDEF_STEREO_COUNT>
0

> <PUBCHEM_ISOTOPIC_ATOM_COUNT>
0

> <PUBCHEM_COMPONENT_COUNT>
1

> <PUBCHEM_CACTVS_TAUTO_COUNT>
5

> <PUBCHEM_CONFORMER_ID>
0535B76A00000001

> <PUBCHEM_MMFF94_ENERGY>
66.1623

> <PUBCHEM_FEATURE_SELFOVERLAP>
40.674

> <PUBCHEM_SHAPE_FINGERPRINT>
10 15 11891339754896328490
10378564 45 18343584057976792184
10670039 82 18271246015327949569
11135609 201 12613329719469993526
11720765 8 18273214184676592192
11724838 91 10881407556002315602
11991303 11 17917423276931837455
13782708 43 16700884085418630567
13914758 101 14476968865871255571
14068700 686 17335046249489166129
14117953 113 18200597987023783622
14211702 104 11455887005490391989
14840074 17 17530681009505841453
14933364 13 18334016094859374315
15001296 14 18041274482391907581
15052358 14 18272934903473075511
15119646 104 15482681147426917327
15183329 4 18272938201981507234
15188451 53 11600008730036681134
15210252 30 17313390084539549788
15575132 122 17894904084778005061
17857418 61 10952051178065662033
17899979 129 18187936135730141868
19315092 285 12966304695984230566
19377110 9 11386369274368874322
19611394 137 18041855038370414891
20567600 234 8286195042151752078
21033648 29 17313673766823001464
21315763 87 9367350340033475789
21315764 119 18343306954923406718
21458453 9 13840564994194432577
22061861 79 16845290561879902943
221357 26 18409168797018603556
2215653 11 17418374696562851302
23559900 14 17917424371641465058
249057 3 18413389817778239910
3004659 81 18343863316813876642
38570 142 18040438776244698163
3882209 13 12399159190981037833
394071 54 15936415584654212934
4058900 60 18336831871356462315
44062 13 17917145117168601751
54076057 255 17458352939923780756
59682541 35 10809636925740452342
59682541 52 16988841644872452047
633830 44 18187635964111912610
6443934 186 8790881883043902910
8988823 20 15051726508901530346
960060 61 18130510846528767394
9689198 14 17967821531178479105

> <PUBCHEM_SHAPE_MULTIPOLES>
513.12
20.6
2.83
1.35
15.46
0.27
-0.25
5.77
8.3
0.39
0.56
-1.99
-0.04
0.37

> <PUBCHEM_SHAPE_SELFOVERLAP>
1120.582

> <PUBCHEM_SHAPE_VOLUME>
279.7

> <PUBCHEM_COORDINATE_TYPE>
2
5
10

$$$$
89421294
  -OEChem-05102415143D

 43 45  0     1  0  0  0  0  0999 V2000
   -2.3531    2.7380    0.5936 S   0  0  0  0  0  0  0  0  0  0  0  0
    7.6384    0.5373   -1.1620 O   0  0  0  0  0  0  0  0  0  0  0  0
   -0.2556   -1.4302    0.2049 O   0  0  0  0  0  0  0  0  0  0  0  0
    1.5997   -0.1267    0.6499 N   0  0  0  0  0  0  0  0  0  0  0  0
   -0.4487    0.8843    0.5461 N   0  0  0  0  0  0  0  0  0  0  0  0
   -2.7739    0.2276    0.1428 N   0  0  0  0  0  0  0  0  0  0  0  0
   -7.5757   -1.2335   -0.7055 N   0  0  0  0  0  0  0  0  0  0  0  0
    2.5718   -1.2059    0.6043 C   0  0  1  0  0  0  0  0  0  0  0  0
    3.9110   -0.7458    0.1373 C   0  0  0  0  0  0  0  0  0  0  0  0
    2.6081   -1.8987    1.9748 C   0  0  0  0  0  0  0  0  0  0  0  0
    4.6320    0.1800    0.8916 C   0  0  0  0  0  0  0  0  0  0  0  0
    4.4428   -1.2403   -1.0536 C   0  0  0  0  0  0  0  0  0  0  0  0
    5.8847    0.6109    0.4553 C   0  0  0  0  0  0  0  0  0  0  0  0
    5.6955   -0.8094   -1.4901 C   0  0  0  0  0  0  0  0  0  0  0  0
    0.2363   -0.3296    0.4423 C   0  0  0  0  0  0  0  0  0  0  0  0
    6.4164    0.1163   -0.7356 C   0  0  0  0  0  0  0  0  0  0  0  0
   -1.8373    1.1123    0.4034 C   0  0  0  0  0  0  0  0  0  0  0  0
   -3.9941    0.8724    0.0871 C   0  0  0  0  0  0  0  0  0  0  0  0
   -5.2087    0.1583   -0.1816 C   0  0  0  0  0  0  0  0  0  0  0  0
   -3.9668    2.2338    0.3057 C   0  0  0  0  0  0  0  0  0  0  0  0
   -5.3371   -1.1712    0.2054 C   0  0  0  0  0  0  0  0  0  0  0  0
   -6.2625    0.7925   -0.8304 C   0  0  0  0  0  0  0  0  0  0  0  0
    8.3210    1.4849   -0.3420 C   0  0  0  0  0  0  0  0  0  0  0  0
   -6.5302   -1.8166   -0.0773 C   0  0  0  0  0  0  0  0  0  0  0  0
   -7.4141    0.0593   -1.0666 C   0  0  0  0  0  0  0  0  0  0  0  0
    2.1863   -1.9492   -0.1060 H   0  0  0  0  0  0  0  0  0  0  0  0
    1.6259   -2.3111    2.2311 H   0  0  0  0  0  0  0  0  0  0  0  0
    3.3302   -2.7227    1.9769 H   0  0  0  0  0  0  0  0  0  0  0  0
    2.8861   -1.2048    2.7761 H   0  0  0  0  0  0  0  0  0  0  0  0
    1.9161    0.8085    0.8883 H   0  0  0  0  0  0  0  0  0  0  0  0
    4.2327    0.5799    1.8199 H   0  0  0  0  0  0  0  0  0  0  0  0
    3.8943   -1.9615   -1.6537 H   0  0  0  0  0  0  0  0  0  0  0  0
    6.3901    1.3317    1.0890 H   0  0  0  0  0  0  0  0  0  0  0  0
    6.1046   -1.1980   -2.4187 H   0  0  0  0  0  0  0  0  0  0  0  0
    0.0934    1.7199    0.7474 H   0  0  0  0  0  0  0  0  0  0  0  0
   -4.7747    2.9521    0.3272 H   0  0  0  0  0  0  0  0  0  0  0  0
   -4.5435   -1.7055    0.7177 H   0  0  0  0  0  0  0  0  0  0  0  0
   -6.2156    1.8216   -1.1706 H   0  0  0  0  0  0  0  0  0  0  0  0
    9.2750    1.7076   -0.8312 H   0  0  0  0  0  0  0  0  0  0  0  0
    8.5567    1.0685    0.6433 H   0  0  0  0  0  0  0  0  0  0  0  0
    7.7693    2.4285   -0.2729 H   0  0  0  0  0  0  0  0  0  0  0  0
   -6.6812   -2.8535    0.2047 H   0  0  0  0  0  0  0  0  0  0  0  0
   -8.2634    0.5063   -1.5727 H   0  0  0  0  0  0  0  0  0  0  0  0
  1 17  1  0  0  0  0
  1 20  1  0  0  0  0
  2 16  1  0  0  0  0
  2 23  1  0  0  0  0
  3 15  2  0  0  0  0
  4  8  1  0  0  0  0
  4 15  1  0  0  0  0
  4 30  1  0  0  0  0
  5 15  1  0  0  0  0
  5 17  1  0  0  0  0
  5 35  1  0  0  0  0
  6 17  2  0  0  0  0
  6 18  1  0  0  0  0
  7 24  2  0  0  0  0
  7 25  1  0  0  0  0
  8  9  1  0  0  0  0
  8 10  1  0  0  0  0
  8 26  1  0  0  0  0
  9 11  2  0  0  0  0
  9 12  1  0  0  0  0
 10 27  1  0  0  0  0
 10 28  1  0  0  0  0
 10 29  1  0  0  0  0
 11 13  1  0  0  0  0
 11 31  1  0  0  0  0
 12 14  2  0  0  0  0
 12 32  1  0  0  0  0
 13 16  2  0  0  0  0
 13 33  1  0  0  0  0
 14 16  1  0  0  0  0
 14 34  1  0  0  0  0
 18 19  1  0  0  0  0
 18 20  2  0  0  0  0
 19 21  2  0  0  0  0
 19 22  1  0  0  0  0
 20 36  1  0  0  0  0
 21 24  1  0  0  0  0
 21 37  1  0  0  0  0
 22 25  2  0  0  0  0
 22 38  1  0  0  0  0
 23 39  1  0  0  0  0
 23 40  1  0  0  0  0
 23 41  1  0  0  0  0
 24 42  1  0  0  0  0
 25 43  1  0  0  0  0
M  END
> <PUBCHEM_COMPOUND_CID>
89421294

> <PUBCHEM_CONFORMER_RMSD>
0.8

> <PUBCHEM_CONFORMER_DIVERSEORDER>
1
21
76
26
46
25
35
49
20
57
54
24
77
72
16
6
60
19
65
31
67
61
27
75
4
47
50
12
53
9
56
37
36
45
43
66
69
30
7
3
42
22
51
44
2
55
48
62
15
8
28
73
41
78
59
52
33
71
70
29
38
14
68
34
58
17
13
64
39
18
11
32
10
74
5
23
40
63

> <PUBCHEM_MMFF94_PARTIAL_CHARGES>
35
1 -0.08
11 -0.15
12 -0.15
13 -0.15
14 -0.15
15 0.69
16 0.08
17 0.44
18 0.17
19 0.05
2 -0.36
20 -0.11
21 -0.15
22 -0.15
23 0.28
24 0.16
25 0.16
3 -0.57
30 0.37
31 0.15
32 0.15
33 0.15
34 0.15
35 0.37
36 0.15
37 0.15
38 0.15
4 -0.73
42 0.15
43 0.15
5 -0.49
6 -0.57
7 -0.62
8 0.44
9 -0.14

> <PUBCHEM_EFFECTIVE_ROTOR_COUNT>
7

> <PUBCHEM_PHARMACOPHORE_FEATURES>
8
1 2 acceptor
1 3 acceptor
1 4 donor
1 5 donor
1 7 acceptor
5 1 6 17 18 20 rings
6 7 19 21 22 24 25 rings
6 9 11 12 13 14 16 rings

> <PUBCHEM_HEAVY_ATOM_COUNT>
25

> <PUBCHEM_ATOM_DEF_STEREO_COUNT>
1

> <PUBCHEM_ATOM_UDEF_STEREO_COUNT>
0

> <PUBCHEM_BOND_DEF_STEREO_COUNT>
0

> <PUBCHEM_BOND_UDEF_STEREO_COUNT>
0

> <PUBCHEM_ISOTOPIC_ATOM_COUNT>
0

> <PUBCHEM_COMPONENT_COUNT>
1

> <PUBCHEM_CACTVS_TAUTO_COUNT>
5

> <PUBCHEM_CONFORMER_ID>
055475EE00000001

> <PUBCHEM_MMFF94_ENERGY>
66.7288

> <PUBCHEM_FEATURE_SELFOVERLAP>
40.651

> <PUBCHEM_SHAPE_FINGERPRINT>
10299344 5 14979959181031459302
10429389 143 16950277416694377229
10595046 47 18335700486110990674
10674148 151 10952052243713443756
10883706 142 13695587742100456393
10968037 39 18408602561726001851
11135609 187 17603580799559817939
11315181 36 18410012135775397985
11443803 9 18187638138225032634
11524674 6 14836117771957770405
11973863 73 13182474205216467574
12107183 9 10159696893399511467
12373685 5 15068616123689161145
12592606 108 11527941257801118173
12616971 3 11743543393337440363
12730499 353 17561361773636031974
13422730 43 18408879655688345528
13668630 136 15913332373279619324
13673619 4 16630806595076929688
14123256 10 18335139795394782279
14347424 109 8142079845971395038
14429380 56 17240481455157307308
14528608 73 18334016056104480960
14767858 380 18333168375320048183
150020 25 18412826901973307052
15142383 8 12035447251366012078
15183329 4 15841833339327170518
15348495 7 10954041285210720436
15352257 5 16486972903537101615
1577012 14 18335140834682227896
18335252 98 18202005434414942878
18681886 176 18412539942165259857
19427546 20 18337670807508423429
20157964 124 15574711370489247522
21095086 128 15697998552681107357
21150785 3 18408605872438983452
21196832 93 18188777274794254835
21267235 1 18342457072028571707
21365058 113 16559028307163035408
21403212 168 9367352526889286561
21585481 151 10592041367291734732
21591340 7 8214144041484547081
21774942 28 14490739122994372343
221357 26 17988641883241012376
22224240 67 17313101973737528810
2297311 6 17917992755034639473
2303208 19 16845285012761051195
23081809 10 18114462245285471289
23424782 7 18130788983951827210
23559900 14 18337943576506894969
246663 6 15841555180065004292
24771293 8 18187090546705896628
2838139 119 11025798708986511123
3004659 81 18334288782575694393
3009799 131 14851603271937079573
335352 9 18411692177095724445
3472631 163 18187374259665652844
34797466 226 17489307512440004256
397638 26 8358259246197063933
4325135 7 18411136948016239364
445580 167 18342738537608668300
497634 4 18271246011143758233
5207 217 18334013895350906674
53794403 172 18190746530274238116
5381727 24 18334855022959634290
5385378 56 8646503946265466325
5486654 2 18409164415993667275
6058803 2 17829320290196339441
636775 8 18341056306630786495
6371009 1 17167869660046352372
6898599 12 18119245069907847477

> <PUBCHEM_SHAPE_MULTIPOLES>
486.68
24.9
2.09
1.19
5.72
0.69
0.06
-0.12
-9.86
-1.69
0.45
1.24
-0.36
-0.63

> <PUBCHEM_SHAPE_SELFOVERLAP>
1032.402

> <PUBCHEM_SHAPE_VOLUME>
274.3

> <PUBCHEM_COORDINATE_TYPE>
2
5
10

$$$$
87408379
  -OEChem-05102415153D

 43 46  0     1  0  0  0  0  0999 V2000
    2.1471    2.1091   -1.8625 S   0  0  0  0  0  0  0  0  0  0  0  0
   -0.1111   -1.0846    0.7114 O   0  0  0  0  0  0  0  0  0  0  0  0
   -1.9325   -0.0637   -0.2793 N   0  0  0  0  0  0  0  0  0  0  0  0
    0.1660    0.6980   -0.7907 N   0  0  0  0  0  0  0  0  0  0  0  0
    2.4803    0.1691   -0.1869 N   0  0  0  0  0  0  0  0  0  0  0  0
    7.2558   -1.0048    1.1276 N   0  0  0  0  0  0  0  0  0  0  0  0
   -2.9443   -0.8829    0.3526 C   0  0  2  0  0  0  0  0  0  0  0  0
   -3.1842   -2.1604   -0.4611 C   0  0  0  0  0  0  0  0  0  0  0  0
   -4.0457   -1.8761   -1.6875 C   0  0  0  0  0  0  0  0  0  0  0  0
   -5.4183   -1.3567   -1.2674 C   0  0  0  0  0  0  0  0  0  0  0  0
   -4.2088   -0.0829    0.5781 C   0  0  0  0  0  0  0  0  0  0  0  0
   -5.3575   -0.2815   -0.2114 C   0  0  0  0  0  0  0  0  0  0  0  0
   -4.2260    0.9055    1.5768 C   0  0  0  0  0  0  0  0  0  0  0  0
   -6.5017    0.4959    0.0277 C   0  0  0  0  0  0  0  0  0  0  0  0
   -5.3663    1.6773    1.7972 C   0  0  0  0  0  0  0  0  0  0  0  0
   -6.5040    1.4720    1.0233 C   0  0  0  0  0  0  0  0  0  0  0  0
   -0.5663   -0.2312   -0.0465 C   0  0  0  0  0  0  0  0  0  0  0  0
    1.5703    0.8604   -0.8365 C   0  0  0  0  0  0  0  0  0  0  0  0
    3.7304    0.6548   -0.5179 C   0  0  0  0  0  0  0  0  0  0  0  0
    4.9259    0.0920    0.0402 C   0  0  0  0  0  0  0  0  0  0  0  0
    3.7517    1.7049   -1.4116 C   0  0  0  0  0  0  0  0  0  0  0  0
    6.0509    0.8877    0.2267 C   0  0  0  0  0  0  0  0  0  0  0  0
    4.9646   -1.2514    0.3969 C   0  0  0  0  0  0  0  0  0  0  0  0
    7.1807    0.2966    0.7690 C   0  0  0  0  0  0  0  0  0  0  0  0
    6.1429   -1.7468    0.9317 C   0  0  0  0  0  0  0  0  0  0  0  0
   -2.5590   -1.1958    1.3322 H   0  0  0  0  0  0  0  0  0  0  0  0
   -3.6966   -2.9021    0.1659 H   0  0  0  0  0  0  0  0  0  0  0  0
   -2.2335   -2.6101   -0.7713 H   0  0  0  0  0  0  0  0  0  0  0  0
   -4.1657   -2.7882   -2.2830 H   0  0  0  0  0  0  0  0  0  0  0  0
   -3.5478   -1.1396   -2.3304 H   0  0  0  0  0  0  0  0  0  0  0  0
   -6.0116   -2.1891   -0.8681 H   0  0  0  0  0  0  0  0  0  0  0  0
   -5.9375   -0.9782   -2.1561 H   0  0  0  0  0  0  0  0  0  0  0  0
   -2.2247    0.6344   -0.9570 H   0  0  0  0  0  0  0  0  0  0  0  0
   -3.3446    1.0791    2.1897 H   0  0  0  0  0  0  0  0  0  0  0  0
   -7.4015    0.3407   -0.5628 H   0  0  0  0  0  0  0  0  0  0  0  0
   -5.3660    2.4371    2.5732 H   0  0  0  0  0  0  0  0  0  0  0  0
   -7.3946    2.0690    1.1963 H   0  0  0  0  0  0  0  0  0  0  0  0
   -0.3494    1.3477   -1.3779 H   0  0  0  0  0  0  0  0  0  0  0  0
    4.5888    2.2449   -1.8320 H   0  0  0  0  0  0  0  0  0  0  0  0
    6.0762    1.9447   -0.0166 H   0  0  0  0  0  0  0  0  0  0  0  0
    4.1130   -1.9113    0.2657 H   0  0  0  0  0  0  0  0  0  0  0  0
    8.0833    0.8745    0.9385 H   0  0  0  0  0  0  0  0  0  0  0  0
    6.2251   -2.7882    1.2251 H   0  0  0  0  0  0  0  0  0  0  0  0
  1 18  1  0  0  0  0
  1 21  1  0  0  0  0
  2 17  2  0  0  0  0
  3  7  1  0  0  0  0
  3 17  1  0  0  0  0
  3 33  1  0  0  0  0
  4 17  1  0  0  0  0
  4 18  1  0  0  0  0
  4 38  1  0  0  0  0
  5 18  2  0  0  0  0
  5 19  1  0  0  0  0
  6 24  2  0  0  0  0
  6 25  1  0  0  0  0
  7  8  1  0  0  0  0
  7 11  1  0  0  0  0
  7 26  1  0  0  0  0
  8  9  1  0  0  0  0
  8 27  1  0  0  0  0
  8 28  1  0  0  0  0
  9 10  1  0  0  0  0
  9 29  1  0  0  0  0
  9 30  1  0  0  0  0
 10 12  1  0  0  0  0
 10 31  1  0  0  0  0
 10 32  1  0  0  0  0
 11 12  1  0  0  0  0
 11 13  2  0  0  0  0
 12 14  2  0  0  0  0
 13 15  1  0  0  0  0
 13 34  1  0  0  0  0
 14 16  1  0  0  0  0
 14 35  1  0  0  0  0
 15 16  2  0  0  0  0
 15 36  1  0  0  0  0
 16 37  1  0  0  0  0
 19 20  1  0  0  0  0
 19 21  2  0  0  0  0
 20 22  2  0  0  0  0
 20 23  1  0  0  0  0
 21 39  1  0  0  0  0
 22 24  1  0  0  0  0
 22 40  1  0  0  0  0
 23 25  2  0  0  0  0
 23 41  1  0  0  0  0
 24 42  1  0  0  0  0
 25 43  1  0  0  0  0
M  END
> <PUBCHEM_COMPOUND_CID>
87408379

> <PUBCHEM_CONFORMER_RMSD>
0.8

> <PUBCHEM_CONFORMER_DIVERSEORDER>
1
21
49
52
39
27
24
47
35
40
43
51
8
44
41
36
46
6
11
38
30
42
18
10
48
45
34
28
53
32
17
29
22
16
50
12
20
26
7
25
33
31
13
9
5
15
23
37
14
3
19
4
2

> <PUBCHEM_MMFF94_PARTIAL_CHARGES>
34
1 -0.08
10 0.14
11 -0.14
12 -0.14
13 -0.15
14 -0.15
15 -0.15
16 -0.15
17 0.69
18 0.44
19 0.17
2 -0.57
20 0.05
21 -0.11
22 -0.15
23 -0.15
24 0.16
25 0.16
3 -0.73
33 0.37
34 0.15
35 0.15
36 0.15
37 0.15
38 0.37
39 0.15
4 -0.49
40 0.15
41 0.15
42 0.15
43 0.15
5 -0.57
6 -0.62
7 0.44

> <PUBCHEM_EFFECTIVE_ROTOR_COUNT>
5.8

> <PUBCHEM_PHARMACOPHORE_FEATURES>
8
1 2 acceptor
1 3 donor
1 4 donor
1 6 acceptor
5 1 5 18 19 21 rings
6 11 12 13 14 15 16 rings
6 6 20 22 23 24 25 rings
6 7 8 9 10 11 12 rings

> <PUBCHEM_HEAVY_ATOM_COUNT>
25

> <PUBCHEM_ATOM_DEF_STEREO_COUNT>
1

> <PUBCHEM_ATOM_UDEF_STEREO_COUNT>
0

> <PUBCHEM_BOND_DEF_STEREO_COUNT>
0

> <PUBCHEM_BOND_UDEF_STEREO_COUNT>
0

> <PUBCHEM_ISOTOPIC_ATOM_COUNT>
0

> <PUBCHEM_COMPONENT_COUNT>
1

> <PUBCHEM_CACTVS_TAUTO_COUNT>
5

> <PUBCHEM_CONFORMER_ID>
0535BEFB00000001

> <PUBCHEM_MMFF94_ENERGY>
53.2467

> <PUBCHEM_FEATURE_SELFOVERLAP>
40.671

> <PUBCHEM_SHAPE_FINGERPRINT>
10 15 15984814965849287066
11089746 13 18201719574134126681
11315181 36 18343580776684899555
11443803 9 18131074784915277307
11475781 23 16988292967048460489
11524674 6 16588030121490354635
11809386 21 18129657642781084687
12107183 9 18334579031389823529
12236239 1 18411418427456800035
12596602 18 17846777430048439946
12616971 3 18186809105376104877
13073987 5 18190749832491197475
13533116 47 18334294284539882168
13590594 115 17967251987781268516
13673619 4 14490482997357656365
13685833 64 17240203223112993464
13782708 43 15719686453798637241
14251764 18 18410575101864047126
14347424 109 18412823574117444848
15021287 119 17967536765845863669
15081414 286 16805892921574564396
15119646 104 18259984881929185326
15183329 4 18334580156840216550
15352257 5 14418134006483417336
15461852 350 16917063391107201693
1577012 14 18336273426100683981
16079462 125 15698000721249363612
17857418 61 18410571807935478078
18927931 339 13262681474308488139
19489759 90 17632580461549670619
20511986 3 18272078392563235183
20554085 129 16988838329089647083
20567600 254 14980238440353671612
21033648 29 15913340082561370405
21049683 118 13469819479188253582
21130935 74 18408884070778199370
21150785 3 9223226351880762656
21267235 1 17822010866598353954
21315763 178 18411979165792363658
21365058 113 15213310719964674766
21591340 7 18409729539891454897
21792961 116 16009019554778047370
22061861 79 16877659080411020198
2303208 19 15574718018613395952
23035841 295 12468357955421373553
23081809 10 18337113461653178908
23522609 53 18191049917783709852
23559900 14 17749950102189103844
23569943 247 17896304827842105474
24771293 8 18263075665366663372
249057 25 18339085994625706629
312425 54 18413100685053942122
3178227 256 16805326591745247728
3663271 9 18272929449407967858
394071 54 18187086118393809978
4073 2 18189618414036943050
444769 64 18040428863344075567
5028188 123 18130794521151259140
5104073 3 18189906476913224016
559249 180 18412542128841761591
59755656 215 15864063261069623034
6299153 45 18410294670717435403
67856867 119 18200029684749573008
9965369 4 18410855451907472907
9981440 41 18131361812905796191

> <PUBCHEM_SHAPE_MULTIPOLES>
492.54
21.52
2.02
1.55
11.67
0.17
0.17
0.76
-7.14
-0.44
0.43
-0.83
-0.42
-3.96

> <PUBCHEM_SHAPE_SELFOVERLAP>
1062.013

> <PUBCHEM_SHAPE_VOLUME>
271.7

> <PUBCHEM_COORDINATE_TYPE>
2
5
10

$$$$
87407564
  -OEChem-05102415153D

 40 43  0     1  0  0  0  0  0999 V2000
   -1.9699   -2.6351   -0.9488 S   0  0  0  0  0  0  0  0  0  0  0  0
    0.2631    1.2774    0.3276 O   0  0  0  0  0  0  0  0  0  0  0  0
    2.1028   -0.0240   -0.1916 N   0  0  0  0  0  0  0  0  0  0  0  0
    0.0010   -0.9291   -0.4292 N   0  0  0  0  0  0  0  0  0  0  0  0
   -2.3199   -0.2194   -0.0978 N   0  0  0  0  0  0  0  0  0  0  0  0
   -7.1099    1.3468    0.6200 N   0  0  0  0  0  0  0  0  0  0  0  0
    3.1031    0.9645    0.1150 C   0  0  2  0  0  0  0  0  0  0  0  0
    3.5096    1.7826   -1.1262 C   0  0  0  0  0  0  0  0  0  0  0  0
    4.6862    1.0391   -1.7813 C   0  0  0  0  0  0  0  0  0  0  0  0
    4.4134    0.3353    0.4829 C   0  0  0  0  0  0  0  0  0  0  0  0
    5.3113    0.3824   -0.5912 C   0  0  0  0  0  0  0  0  0  0  0  0
    4.7684   -0.2610    1.6823 C   0  0  0  0  0  0  0  0  0  0  0  0
    6.5758   -0.1728   -0.4912 C   0  0  0  0  0  0  0  0  0  0  0  0
    6.0462   -0.8125    1.7959 C   0  0  0  0  0  0  0  0  0  0  0  0
    6.9430   -0.7696    0.7166 C   0  0  0  0  0  0  0  0  0  0  0  0
    0.7260    0.2076   -0.0609 C   0  0  0  0  0  0  0  0  0  0  0  0
   -1.4032   -1.0985   -0.4366 C   0  0  0  0  0  0  0  0  0  0  0  0
   -3.5670   -0.7933   -0.2509 C   0  0  0  0  0  0  0  0  0  0  0  0
   -4.7685   -0.0676    0.0445 C   0  0  0  0  0  0  0  0  0  0  0  0
   -3.5794   -2.0964   -0.7026 C   0  0  0  0  0  0  0  0  0  0  0  0
   -5.9004   -0.7424    0.4882 C   0  0  0  0  0  0  0  0  0  0  0  0
   -4.8058    1.3136   -0.1116 C   0  0  0  0  0  0  0  0  0  0  0  0
   -7.0357    0.0041    0.7598 C   0  0  0  0  0  0  0  0  0  0  0  0
   -5.9901    1.9682    0.1870 C   0  0  0  0  0  0  0  0  0  0  0  0
    2.7404    1.6318    0.9045 H   0  0  0  0  0  0  0  0  0  0  0  0
    3.8627    2.7712   -0.7992 H   0  0  0  0  0  0  0  0  0  0  0  0
    2.6869    1.9500   -1.8294 H   0  0  0  0  0  0  0  0  0  0  0  0
    4.3322    0.2817   -2.4882 H   0  0  0  0  0  0  0  0  0  0  0  0
    5.3662    1.7333   -2.2828 H   0  0  0  0  0  0  0  0  0  0  0  0
    2.4025   -0.9228   -0.5582 H   0  0  0  0  0  0  0  0  0  0  0  0
    4.0741   -0.3036    2.5147 H   0  0  0  0  0  0  0  0  0  0  0  0
    7.2674   -0.1485   -1.3265 H   0  0  0  0  0  0  0  0  0  0  0  0
    6.3490   -1.2846    2.7266 H   0  0  0  0  0  0  0  0  0  0  0  0
    7.9310   -1.2094    0.8224 H   0  0  0  0  0  0  0  0  0  0  0  0
    0.5228   -1.7470   -0.7317 H   0  0  0  0  0  0  0  0  0  0  0  0
   -4.4125   -2.7530   -0.9123 H   0  0  0  0  0  0  0  0  0  0  0  0
   -5.9272   -1.8156    0.6449 H   0  0  0  0  0  0  0  0  0  0  0  0
   -3.9489    1.8817   -0.4590 H   0  0  0  0  0  0  0  0  0  0  0  0
   -7.9438   -0.4738    1.1123 H   0  0  0  0  0  0  0  0  0  0  0  0
   -6.0716    3.0450    0.0809 H   0  0  0  0  0  0  0  0  0  0  0  0
  1 17  1  0  0  0  0
  1 20  1  0  0  0  0
  2 16  2  0  0  0  0
  3  7  1  0  0  0  0
  3 16  1  0  0  0  0
  3 30  1  0  0  0  0
  4 16  1  0  0  0  0
  4 17  1  0  0  0  0
  4 35  1  0  0  0  0
  5 17  2  0  0  0  0
  5 18  1  0  0  0  0
  6 23  2  0  0  0  0
  6 24  1  0  0  0  0
  7  8  1  0  0  0  0
  7 10  1  0  0  0  0
  7 25  1  0  0  0  0
  8  9  1  0  0  0  0
  8 26  1  0  0  0  0
  8 27  1  0  0  0  0
  9 11  1  0  0  0  0
  9 28  1  0  0  0  0
  9 29  1  0  0  0  0
 10 11  1  0  0  0  0
 10 12  2  0  0  0  0
 11 13  2  0  0  0  0
 12 14  1  0  0  0  0
 12 31  1  0  0  0  0
 13 15  1  0  0  0  0
 13 32  1  0  0  0  0
 14 15  2  0  0  0  0
 14 33  1  0  0  0  0
 15 34  1  0  0  0  0
 18 19  1  0  0  0  0
 18 20  2  0  0  0  0
 19 21  2  0  0  0  0
 19 22  1  0  0  0  0
 20 36  1  0  0  0  0
 21 23  1  0  0  0  0
 21 37  1  0  0  0  0
 22 24  2  0  0  0  0
 22 38  1  0  0  0  0
 23 39  1  0  0  0  0
 24 40  1  0  0  0  0
M  END
> <PUBCHEM_COMPOUND_CID>
87407564

> <PUBCHEM_CONFORMER_RMSD>
0.8

> <PUBCHEM_CONFORMER_DIVERSEORDER>
1
38
22
33
50
8
45
34
37
5
40
16
32
19
21
7
25
44
42
51
31
41
4
27
47
26
46
49
48
14
12
29
18
36
6
9
39
13
17
23
20
43
30
15
11
10
28
35
24
2
3

> <PUBCHEM_MMFF94_PARTIAL_CHARGES>
34
1 -0.08
10 -0.14
11 -0.14
12 -0.15
13 -0.15
14 -0.15
15 -0.15
16 0.69
17 0.44
18 0.17
19 0.05
2 -0.57
20 -0.11
21 -0.15
22 -0.15
23 0.16
24 0.16
3 -0.73
30 0.37
31 0.15
32 0.15
33 0.15
34 0.15
35 0.37
36 0.15
37 0.15
38 0.15
39 0.15
4 -0.49
40 0.15
5 -0.57
6 -0.62
7 0.44
9 0.14

> <PUBCHEM_EFFECTIVE_ROTOR_COUNT>
5.6

> <PUBCHEM_PHARMACOPHORE_FEATURES>
8
1 2 acceptor
1 3 donor
1 4 donor
1 6 acceptor
5 1 5 17 18 20 rings
5 7 8 9 10 11 rings
6 10 11 12 13 14 15 rings
6 6 19 21 22 23 24 rings

> <PUBCHEM_HEAVY_ATOM_COUNT>
24

> <PUBCHEM_ATOM_DEF_STEREO_COUNT>
1

> <PUBCHEM_ATOM_UDEF_STEREO_COUNT>
0

> <PUBCHEM_BOND_DEF_STEREO_COUNT>
0

> <PUBCHEM_BOND_UDEF_STEREO_COUNT>
0

> <PUBCHEM_ISOTOPIC_ATOM_COUNT>
0

> <PUBCHEM_COMPONENT_COUNT>
1

> <PUBCHEM_CACTVS_TAUTO_COUNT>
5

> <PUBCHEM_CONFORMER_ID>
0535BBCC00000001

> <PUBCHEM_MMFF94_ENERGY>
56.9555

> <PUBCHEM_FEATURE_SELFOVERLAP>
40.731

> <PUBCHEM_SHAPE_FINGERPRINT>
10 15 18335146414487940299
10299344 5 17822012012320777274
10674148 151 18408041806743871626
11089746 13 17346873464077270265
11524674 6 17704069603702223455
11646440 116 17632585967655650785
11796584 16 18201158841022322070
12107183 9 18408601457154541740
12144603 126 18333734629174179396
12166972 35 16950287312267677644
12236239 1 18260548944025980412
12596602 18 17240204357016339705
12616971 3 18186795915747810150
13073987 5 18193273216019441894
13167372 99 18335140886243083748
13533116 47 17167577172899744184
13782708 43 13768471026051906952
13878862 14 15195268838650230648
13914758 101 14979685359639302731
14123256 10 9007056872343478963
14251752 14 18411419505345911369
14251764 18 18260547839760384511
14294032 229 18195823863864055440
14933364 13 16805322193092094501
15142383 8 18114174212326378508
15183329 4 18335696152457392543
15348495 7 17703500120902993538
15352257 5 15574715789651762994
15419008 47 17131830945816254360
15461852 350 16845285094191512852
1577012 14 18336548312602564620
15799311 1 17240491303290950778
18335252 98 12540697007630624560
20157964 124 13973969809497081332
20281389 69 18408604781675902941
20554085 129 17346307168561311371
21033648 29 17202746203449966330
21150785 3 10592039167629525770
21223535 225 16199880458244767209
21267235 1 17821724997780480762
21315759 40 17821731667347895695
21315763 191 18186798127740688194
21639891 77 17916026953199551051
21774942 28 16199598969570634609
21859007 373 17846774079330604656
22033318 11 17896889750468514593
220451 1 17822008735619718650
23081809 10 18334574702063003910
23522609 53 17896342309673277908
23559900 14 17346876792824709026
2747138 104 12540703617390120949
2838139 119 18272364274793641661
3004659 81 18410016555032988708
3009799 131 16128657444338393075
3411729 13 18337956680004137471
3633792 109 13398641523546437309
4073 2 17605281881450173440
4403749 210 15768347592229617598
46194498 28 13984662551862354238
5104073 3 18265328589401009850
5385378 56 18129954373307355423
559249 180 18342735238910384415
59755656 215 18131357367186714430
59755656 520 17531247283764229195
7226269 152 17917711301289984057

> <PUBCHEM_SHAPE_MULTIPOLES>
471.96
21.83
1.94
1.26
3.74
0.45
0.11
-3.6
5.57
2.34
-0.55
-2.06
0.07
-2.07

> <PUBCHEM_SHAPE_SELFOVERLAP>
1025.27

> <PUBCHEM_SHAPE_VOLUME>
259.3

> <PUBCHEM_COORDINATE_TYPE>
2
5
10

$$$$
