57446059
  -OEChem-05102415103D

 49 52  0     1  0  0  0  0  0999 V2000
   -4.0188   -0.6512   -1.1284 O   0  0  0  0  0  0  0  0  0  0  0  0
   -2.0778    1.5814    0.2001 N   0  0  2  0  0  0  0  0  0  0  0  0
    1.5655    2.4251    0.2642 N   0  0  0  0  0  0  0  0  0  0  0  0
    4.9130   -1.8848   -0.2183 N   0  0  0  0  0  0  0  0  0  0  0  0
    4.1771   -2.7967   -0.8755 N   0  0  0  0  0  0  0  0  0  0  0  0
    0.2211    2.3763   -0.2722 C   0  0  2  0  0  0  0  0  0  0  0  0
   -0.2996    3.7985   -0.4827 C   0  0  0  0  0  0  0  0  0  0  0  0
   -0.6898    1.5957    0.6846 C   0  0  0  0  0  0  0  0  0  0  0  0
   -1.7649    3.7723   -0.9035 C   0  0  0  0  0  0  0  0  0  0  0  0
   -2.6079    2.9453    0.0680 C   0  0  0  0  0  0  0  0  0  0  0  0
   -2.9234    0.7882    1.0921 C   0  0  0  0  0  0  0  0  0  0  0  0
   -2.7226   -0.6899    0.8877 C   0  0  0  0  0  0  0  0  0  0  0  0
    2.4619    1.3751    0.1778 C   0  0  0  0  0  0  0  0  0  0  0  0
    2.0728    0.1894   -0.4582 C   0  0  0  0  0  0  0  0  0  0  0  0
   -3.2801   -1.3394   -0.2135 C   0  0  0  0  0  0  0  0  0  0  0  0
    3.7394    1.5109    0.7243 C   0  0  0  0  0  0  0  0  0  0  0  0
   -1.9696   -1.4102    1.8148 C   0  0  0  0  0  0  0  0  0  0  0  0
    2.9977   -0.8652   -0.5358 C   0  0  0  0  0  0  0  0  0  0  0  0
    4.2632   -0.7033    0.0168 C   0  0  0  0  0  0  0  0  0  0  0  0
    4.6711    0.4701    0.6550 C   0  0  0  0  0  0  0  0  0  0  0  0
   -3.0845   -2.7094   -0.3877 C   0  0  0  0  0  0  0  0  0  0  0  0
   -1.7740   -2.7803    1.6407 C   0  0  0  0  0  0  0  0  0  0  0  0
   -2.3314   -3.4301    0.5395 C   0  0  0  0  0  0  0  0  0  0  0  0
    3.0125   -2.1728   -1.0668 C   0  0  0  0  0  0  0  0  0  0  0  0
   -4.5509   -1.3951   -2.2228 C   0  0  0  0  0  0  0  0  0  0  0  0
    0.2156    1.9075   -1.2651 H   0  0  0  0  0  0  0  0  0  0  0  0
    0.2990    4.3165   -1.2416 H   0  0  0  0  0  0  0  0  0  0  0  0
   -0.2004    4.3801    0.4434 H   0  0  0  0  0  0  0  0  0  0  0  0
   -0.3161    0.5734    0.7845 H   0  0  0  0  0  0  0  0  0  0  0  0
   -0.6378    2.0405    1.6890 H   0  0  0  0  0  0  0  0  0  0  0  0
   -2.1535    4.7959   -0.9515 H   0  0  0  0  0  0  0  0  0  0  0  0
   -1.8482    3.3513   -1.9136 H   0  0  0  0  0  0  0  0  0  0  0  0
   -3.6330    2.9116   -0.3209 H   0  0  0  0  0  0  0  0  0  0  0  0
   -2.6449    3.4460    1.0445 H   0  0  0  0  0  0  0  0  0  0  0  0
   -3.9861    0.9947    0.9017 H   0  0  0  0  0  0  0  0  0  0  0  0
   -2.7695    1.0640    2.1446 H   0  0  0  0  0  0  0  0  0  0  0  0
    1.8451    3.2423    0.7960 H   0  0  0  0  0  0  0  0  0  0  0  0
    1.0992    0.0337   -0.9057 H   0  0  0  0  0  0  0  0  0  0  0  0
    4.0304    2.4371    1.2160 H   0  0  0  0  0  0  0  0  0  0  0  0
   -1.5287   -0.9181    2.6777 H   0  0  0  0  0  0  0  0  0  0  0  0
    5.6638    0.5737    1.0787 H   0  0  0  0  0  0  0  0  0  0  0  0
   -3.4858   -3.2811   -1.2172 H   0  0  0  0  0  0  0  0  0  0  0  0
   -1.1872   -3.3412    2.3623 H   0  0  0  0  0  0  0  0  0  0  0  0
   -2.1781   -4.4969    0.4048 H   0  0  0  0  0  0  0  0  0  0  0  0
    2.2213   -2.6959   -1.5852 H   0  0  0  0  0  0  0  0  0  0  0  0
    5.8589   -2.1329    0.0434 H   0  0  0  0  0  0  0  0  0  0  0  0
   -5.1086   -0.6910   -2.8492 H   0  0  0  0  0  0  0  0  0  0  0  0
   -5.2650   -2.1543   -1.8862 H   0  0  0  0  0  0  0  0  0  0  0  0
   -3.7569   -1.8161   -2.8491 H   0  0  0  0  0  0  0  0  0  0  0  0
  1 15  1  0  0  0  0
  1 25  1  0  0  0  0
  2  8  1  0  0  0  0
  2 10  1  0  0  0  0
  2 11  1  0  0  0  0
  3  6  1  0  0  0  0
  3 13  1  0  0  0  0
  3 37  1  0  0  0  0
  4  5  1  0  0  0  0
  4 19  1  0  0  0  0
  4 46  1  0  0  0  0
  5 24  2  0  0  0  0
  6  7  1  0  0  0  0
  6  8  1  0  0  0  0
  6 26  1  0  0  0  0
  7  9  1  0  0  0  0
  7 27  1  0  0  0  0
  7 28  1  0  0  0  0
  8 29  1  0  0  0  0
  8 30  1  0  0  0  0
  9 10  1  0  0  0  0
  9 31  1  0  0  0  0
  9 32  1  0  0  0  0
 10 33  1  0  0  0  0
 10 34  1  0  0  0  0
 11 12  1  0  0  0  0
 11 35  1  0  0  0  0
 11 36  1  0  0  0  0
 12 15  1  0  0  0  0
 12 17  2  0  0  0  0
 13 14  2  0  0  0  0
 13 16  1  0  0  0  0
 14 18  1  0  0  0  0
 14 38  1  0  0  0  0
 15 21  2  0  0  0  0
 16 20  2  0  0  0  0
 16 39  1  0  0  0  0
 17 22  1  0  0  0  0
 17 40  1  0  0  0  0
 18 19  2  0  0  0  0
 18 24  1  0  0  0  0
 19 20  1  0  0  0  0
 20 41  1  0  0  0  0
 21 23  1  0  0  0  0
 21 42  1  0  0  0  0
 22 23  2  0  0  0  0
 22 43  1  0  0  0  0
 23 44  1  0  0  0  0
 24 45  1  0  0  0  0
 25 47  1  0  0  0  0
 25 48  1  0  0  0  0
 25 49  1  0  0  0  0
M  END
> <PUBCHEM_COMPOUND_CID>
57446059

> <PUBCHEM_CONFORMER_RMSD>
0.8

> <PUBCHEM_CONFORMER_DIVERSEORDER>
1
72
160
27
188
254
278
106
290
145
137
364
375
310
250
229
121
180
362
171
315
183
108
311
256
347
221
233
344
4
322
382
86
203
132
159
264
129
379
139
334
348
13
200
216
345
313
291
115
357
292
34
343
297
286
146
50
273
6
366
230
285
266
20
289
385
120
92
316
245
277
217
248
295
342
304
260
205
156
174
73
10
56
133
374
97
323
112
63
271
352
223
181
70
91
262
22
296
349
365
93
356
243
11
98
197
246
192
247
321
80
351
69
358
235
319
189
57
213
204
54
9
328
225
306
283
338
190
369
265
61
218
102
363
376
153
12
151
113
26
383
79
267
173
158
252
42
201
269
30
38
47
263
157
312
300
386
177
105
140
336
36
96
89
335
164
227
368
320
119
294
257
272
332
19
236
127
90
280
354
88
224
317
210
242
117
110
81
206
193
244
8
186
2
37
388
251
309
154
299
143
371
258
381
330
24
176
169
5
184
302
142
298
333
378
261
207
48
361
199
107
198
94
114
268
219
211
39
150
62
99
134
209
353
82
83
275
301
220
195
350
305
359
307
253
166
288
60
239
162
147
75
282
55
241
179
141
76
276
64
360
31
222
152
215
46
185
7
67
53
52
71
85
68
270
125
281
232
208
3
331
240
314
380
161
324
355
318
182
326
168
78
167
214
123
155
131
238
325
367
187
259
387
77
95
329
128
28
87
35
194
377
126
51
234
339
104
165
231
45
74
44
249
346
148
170
175
122
41
228
237
66
65
100
144
33
149
116
163
23
337
178
138
16
49
287
340
29
372
130
101
15
196
43
18
172
255
136
212
327
25
14
191
373
135
21
293
103
279
109
384
341
58
202
40
111
370
17
303
118
226
284
84
124
274
59
32
308

> <PUBCHEM_MMFF94_PARTIAL_CHARGES>
32
1 -0.36
10 0.27
11 0.41
12 -0.14
13 0.1
14 -0.15
15 0.08
16 -0.15
17 -0.15
19 -0.15
2 -0.81
20 -0.15
21 -0.15
22 -0.15
23 -0.15
24 0.14
25 0.28
3 -0.87
37 0.4
38 0.15
39 0.15
4 0.3
40 0.15
41 0.15
42 0.15
43 0.15
44 0.15
45 0.15
46 0.27
5 -0.71
6 0.37
8 0.27

> <PUBCHEM_EFFECTIVE_ROTOR_COUNT>
6.2

> <PUBCHEM_PHARMACOPHORE_FEATURES>
10
1 1 acceptor
1 2 cation
1 3 cation
1 3 donor
1 4 donor
1 5 acceptor
5 4 5 18 19 24 rings
6 12 15 17 21 22 23 rings
6 13 14 16 18 19 20 rings
6 2 6 7 8 9 10 rings

> <PUBCHEM_HEAVY_ATOM_COUNT>
25

> <PUBCHEM_ATOM_DEF_STEREO_COUNT>
0

> <PUBCHEM_ATOM_UDEF_STEREO_COUNT>
1

> <PUBCHEM_BOND_DEF_STEREO_COUNT>
0

> <PUBCHEM_BOND_UDEF_STEREO_COUNT>
0

> <PUBCHEM_ISOTOPIC_ATOM_COUNT>
0

> <PUBCHEM_COMPONENT_COUNT>
1

> <PUBCHEM_CACTVS_TAUTO_COUNT>
2

> <PUBCHEM_CONFORMER_ID>
036C8EAB00000001

> <PUBCHEM_MMFF94_ENERGY>
71.4874

> <PUBCHEM_FEATURE_SELFOVERLAP>
50.837

> <PUBCHEM_SHAPE_FINGERPRINT>
10483366 6 18265316332471799389
10764073 3 17825703091021833835
107951 10 16954245395393144769
11135926 11 18047197637129370189
11552529 35 17917994966515457528
12156800 1 16549114990341982119
12422481 6 18127439811910417451
12553582 1 18264507236977357561
12788726 201 18262225655913313145
13122387 1 17112704687515994554
13402501 40 18196382420106922402
140371 6 18191585461450419041
14251757 17 18189876769162520687
14251757 5 18120683265391723182
1454969 45 18195802093449811000
14659021 117 18337097987102224040
15352361 1 18339360867667801722
19141452 34 18341901757804966105
19315092 285 16699757124258706627
19930381 70 17906175405669980555
20775530 9 18341902895812439834
23559900 14 18121773095657110553
23572383 38 18265599065024666282
3027735 51 18266171743448381855
3298306 158 17397266036299517085
3459 83 18271802476223615735
4280585 95 18189037854448848936
46194498 28 17464806154118751199
469060 322 17555134255350074740
508706 21 18410296865667730754
5309563 4 17833562566612453699
550186 72 18263086673041581852
613672 6 18265603458649525043
9709674 26 18411139125912960808

> <PUBCHEM_SHAPE_MULTIPOLES>
488.69
9.47
5.01
1.41
6.64
2.18
-0.12
-6.3
-1.89
-2.07
-0.57
-1.45
-0.76
1.09

> <PUBCHEM_SHAPE_SELFOVERLAP>
1059.623

> <PUBCHEM_SHAPE_VOLUME>
268.4

> <PUBCHEM_COORDINATE_TYPE>
2
5
10

$$$$
25009523
  -OEChem-05102415113D

 51 54  0     1  0  0  0  0  0999 V2000
   -4.6572   -1.5416   -0.0800 S   0  0  0  0  0  0  0  0  0  0  0  0
   -4.9803   -2.0860    1.2313 O   0  0  0  0  0  0  0  0  0  0  0  0
   -5.7301   -1.1669   -0.9911 O   0  0  0  0  0  0  0  0  0  0  0  0
    0.1881    3.1204   -0.0914 N   0  0  2  0  0  0  0  0  0  0  0  0
    3.3218    1.1108    0.2713 N   0  0  0  0  0  0  0  0  0  0  0  0
    2.5979   -4.3139    0.0203 N   0  0  0  0  0  0  0  0  0  0  0  0
    1.4736   -4.4595   -0.7005 N   0  0  0  0  0  0  0  0  0  0  0  0
    2.3852    2.0091   -0.3715 C   0  0  1  0  0  0  0  0  0  0  0  0
    1.1337    2.1641    0.5028 C   0  0  0  0  0  0  0  0  0  0  0  0
    3.0543    3.3629   -0.6114 C   0  0  0  0  0  0  0  0  0  0  0  0
    2.0426    4.3694   -1.1484 C   0  0  0  0  0  0  0  0  0  0  0  0
    0.8043    4.4442   -0.2544 C   0  0  0  0  0  0  0  0  0  0  0  0
   -1.0229    3.2166    0.7234 C   0  0  0  0  0  0  0  0  0  0  0  0
   -1.9290    2.0309    0.5238 C   0  0  0  0  0  0  0  0  0  0  0  0
    3.1989   -0.2669    0.2480 C   0  0  0  0  0  0  0  0  0  0  0  0
   -2.7073    1.9346   -0.6298 C   0  0  0  0  0  0  0  0  0  0  0  0
   -1.9893    1.0282    1.4915 C   0  0  0  0  0  0  0  0  0  0  0  0
    2.1188   -0.8501   -0.4265 C   0  0  0  0  0  0  0  0  0  0  0  0
    4.1521   -1.0555    0.8948 C   0  0  0  0  0  0  0  0  0  0  0  0
    2.0132   -2.2509   -0.4393 C   0  0  0  0  0  0  0  0  0  0  0  0
   -3.6062   -0.1670    0.1524 C   0  0  0  0  0  0  0  0  0  0  0  0
   -3.5459    0.8357   -0.8155 C   0  0  0  0  0  0  0  0  0  0  0  0
   -2.8280   -0.0707    1.3058 C   0  0  0  0  0  0  0  0  0  0  0  0
    2.9763   -3.0126    0.2130 C   0  0  0  0  0  0  0  0  0  0  0  0
    4.0606   -2.4512    0.8910 C   0  0  0  0  0  0  0  0  0  0  0  0
    1.1208   -3.2024   -0.9781 C   0  0  0  0  0  0  0  0  0  0  0  0
   -3.6462   -2.7317   -0.9315 C   0  0  0  0  0  0  0  0  0  0  0  0
    2.1070    1.6345   -1.3655 H   0  0  0  0  0  0  0  0  0  0  0  0
    0.6552    1.1888    0.6242 H   0  0  0  0  0  0  0  0  0  0  0  0
    1.4262    2.4894    1.5118 H   0  0  0  0  0  0  0  0  0  0  0  0
    3.4825    3.7459    0.3245 H   0  0  0  0  0  0  0  0  0  0  0  0
    3.8884    3.2578   -1.3156 H   0  0  0  0  0  0  0  0  0  0  0  0
    2.5082    5.3589   -1.2188 H   0  0  0  0  0  0  0  0  0  0  0  0
    1.7457    4.0829   -2.1653 H   0  0  0  0  0  0  0  0  0  0  0  0
    1.0769    4.8705    0.7202 H   0  0  0  0  0  0  0  0  0  0  0  0
    0.0916    5.1329   -0.7242 H   0  0  0  0  0  0  0  0  0  0  0  0
   -0.7877    3.3583    1.7872 H   0  0  0  0  0  0  0  0  0  0  0  0
   -1.6053    4.1043    0.4384 H   0  0  0  0  0  0  0  0  0  0  0  0
    4.0679    1.5091    0.8312 H   0  0  0  0  0  0  0  0  0  0  0  0
   -2.6676    2.7085   -1.3918 H   0  0  0  0  0  0  0  0  0  0  0  0
   -1.3868    1.0898    2.3939 H   0  0  0  0  0  0  0  0  0  0  0  0
    1.3570   -0.2868   -0.9508 H   0  0  0  0  0  0  0  0  0  0  0  0
    4.9873   -0.5909    1.4153 H   0  0  0  0  0  0  0  0  0  0  0  0
   -4.1385    0.7775   -1.7242 H   0  0  0  0  0  0  0  0  0  0  0  0
   -2.8533   -0.8433    2.0692 H   0  0  0  0  0  0  0  0  0  0  0  0
    4.7999   -3.0655    1.3928 H   0  0  0  0  0  0  0  0  0  0  0  0
    0.2268   -3.0298   -1.5608 H   0  0  0  0  0  0  0  0  0  0  0  0
    3.0631   -5.1489    0.3539 H   0  0  0  0  0  0  0  0  0  0  0  0
   -2.7850   -2.9776   -0.3073 H   0  0  0  0  0  0  0  0  0  0  0  0
   -3.3258   -2.3084   -1.8854 H   0  0  0  0  0  0  0  0  0  0  0  0
   -4.2483   -3.6262   -1.1043 H   0  0  0  0  0  0  0  0  0  0  0  0
  1  2  2  0  0  0  0
  1  3  2  0  0  0  0
  1 21  1  0  0  0  0
  1 27  1  0  0  0  0
  4  9  1  0  0  0  0
  4 12  1  0  0  0  0
  4 13  1  0  0  0  0
  5  8  1  0  0  0  0
  5 15  1  0  0  0  0
  5 39  1  0  0  0  0
  6  7  1  0  0  0  0
  6 24  1  0  0  0  0
  6 48  1  0  0  0  0
  7 26  2  0  0  0  0
  8  9  1  0  0  0  0
  8 10  1  0  0  0  0
  8 28  1  0  0  0  0
  9 29  1  0  0  0  0
  9 30  1  0  0  0  0
 10 11  1  0  0  0  0
 10 31  1  0  0  0  0
 10 32  1  0  0  0  0
 11 12  1  0  0  0  0
 11 33  1  0  0  0  0
 11 34  1  0  0  0  0
 12 35  1  0  0  0  0
 12 36  1  0  0  0  0
 13 14  1  0  0  0  0
 13 37  1  0  0  0  0
 13 38  1  0  0  0  0
 14 16  2  0  0  0  0
 14 17  1  0  0  0  0
 15 18  2  0  0  0  0
 15 19  1  0  0  0  0
 16 22  1  0  0  0  0
 16 40  1  0  0  0  0
 17 23  2  0  0  0  0
 17 41  1  0  0  0  0
 18 20  1  0  0  0  0
 18 42  1  0  0  0  0
 19 25  2  0  0  0  0
 19 43  1  0  0  0  0
 20 24  2  0  0  0  0
 20 26  1  0  0  0  0
 21 22  2  0  0  0  0
 21 23  1  0  0  0  0
 22 44  1  0  0  0  0
 23 45  1  0  0  0  0
 24 25  1  0  0  0  0
 25 46  1  0  0  0  0
 26 47  1  0  0  0  0
 27 49  1  0  0  0  0
 27 50  1  0  0  0  0
 27 51  1  0  0  0  0
M  END
> <PUBCHEM_COMPOUND_CID>
25009523

> <PUBCHEM_CONFORMER_RMSD>
0.8

> <PUBCHEM_CONFORMER_DIVERSEORDER>
1
335
86
46
242
258
236
251
215
32
170
289
324
197
189
6
298
161
76
219
103
224
222
328
178
257
113
64
52
125
322
172
288
350
118
223
255
39
308
169
183
338
193
321
142
346
237
283
133
244
344
333
317
245
63
127
295
162
254
24
250
34
270
175
319
230
307
35
285
341
159
290
325
12
234
229
273
276
163
186
339
81
332
218
278
227
238
31
198
33
342
240
180
235
293
66
349
282
53
48
146
202
54
151
75
60
205
96
104
38
166
312
91
304
306
265
117
100
134
181
14
168
243
149
216
313
274
77
140
220
210
302
204
206
213
40
150
330
29
143
164
272
131
226
47
286
105
173
352
80
8
233
27
264
184
201
42
309
263
320
327
2
253
7
331
148
297
182
303
112
95
318
74
269
152
132
311
248
310
277
144
62
136
301
51
67
120
275
50
139
119
217
343
56
110
22
185
176
329
57
281
36
246
247
49
58
128
316
203
13
158
109
323
336
123
37
351
126
171
191
291
267
221
347
130
280
239
87
106
15
68
16
145
65
249
10
232
25
256
353
88
70
141
287
271
155
207
190
174
340
348
199
107
261
55
262
314
23
214
72
177
209
284
45
167
279
294
85
153
30
194
200
260
211
315
21
334
82
137
28
17
71
3
99
179
154
111
19
122
44
300
292
4
225
192
89
84
337
305
92
231
93
241
157
268
228
78
97
156
135
121
138
195
326
188
299
73
18
43
196
9
90
5
187
129
259
160
208
101
116
20
102
252
69
98
345
266
11
114
61
165
147
79
124
94
59
108
41
115
83
296
26
212

> <PUBCHEM_MMFF94_PARTIAL_CHARGES>
34
1 1.2
12 0.27
13 0.41
14 -0.14
15 0.1
16 -0.15
17 -0.15
18 -0.15
19 -0.15
2 -0.65
21 -0.01
22 -0.15
23 -0.15
24 -0.15
25 -0.15
26 0.14
27 0.11
3 -0.65
39 0.4
4 -0.81
40 0.15
41 0.15
42 0.15
43 0.15
44 0.15
45 0.15
46 0.15
47 0.15
48 0.27
5 -0.87
6 0.3
7 -0.71
8 0.37
9 0.27

> <PUBCHEM_EFFECTIVE_ROTOR_COUNT>
6.2

> <PUBCHEM_PHARMACOPHORE_FEATURES>
11
1 2 acceptor
1 3 acceptor
1 4 cation
1 5 cation
1 5 donor
1 6 donor
1 7 acceptor
5 6 7 20 24 26 rings
6 14 16 17 21 22 23 rings
6 15 18 19 20 24 25 rings
6 4 8 9 10 11 12 rings

> <PUBCHEM_HEAVY_ATOM_COUNT>
27

> <PUBCHEM_ATOM_DEF_STEREO_COUNT>
0

> <PUBCHEM_ATOM_UDEF_STEREO_COUNT>
1

> <PUBCHEM_BOND_DEF_STEREO_COUNT>
0

> <PUBCHEM_BOND_UDEF_STEREO_COUNT>
0

> <PUBCHEM_ISOTOPIC_ATOM_COUNT>
0

> <PUBCHEM_COMPONENT_COUNT>
1

> <PUBCHEM_CACTVS_TAUTO_COUNT>
2

> <PUBCHEM_CONFORMER_ID>
017D9D7300000001

> <PUBCHEM_MMFF94_ENERGY>
58.3291

> <PUBCHEM_FEATURE_SELFOVERLAP>
55.93

> <PUBCHEM_SHAPE_FINGERPRINT>
10940486 97 17109897647864051014
1100329 8 17907292509831538108
11014199 57 18267027145882184850
12156800 1 10008058679263052405
12553582 1 18121800338956129792
12717326 68 17975383873096704298
13122387 1 18268996384039919895
1361 2 17905888433377074377
138480 1 18410294692129130572
14117953 113 18198904717298650407
14251757 5 17043755425856167006
14659021 117 17615397070302947954
14675020 138 17911789481987125393
14863182 85 18266740371227756096
15110567 62 18123474049162046921
152267 14 18124310506485330983
17138139 8 17196848607397932501
19930381 70 18410293627272497411
20028762 73 18200036278209811340
20775438 99 17761164961910668181
20775530 9 18335988553899469195
21133410 171 17177945443033608827
21133410 52 18268413802740937742
23559900 14 18410001135710220113
3882209 13 17831543566969213459
4280585 95 18118109287090462728
463206 1 18268709588031135875
5309563 4 18411982459768184817
5312544 6 18194118753156375167
56633871 153 18124604076595875505
613672 6 18192978344807580971
6433294 58 18338234998115945495
9709674 26 17546442276904252608

> <PUBCHEM_SHAPE_MULTIPOLES>
527.83
9.52
6.95
1.15
9.19
0.94
-0.14
-6.98
-0.34
-5.8
1.74
0.5
-0.02
-1.12

> <PUBCHEM_SHAPE_SELFOVERLAP>
1127.933

> <PUBCHEM_SHAPE_VOLUME>
295

> <PUBCHEM_COORDINATE_TYPE>
2
5
10

$$$$
25009524
  -OEChem-05102415113D

 46 49  0     1  0  0  0  0  0999 V2000
   -2.2833    1.9123   -0.0761 N   0  0  2  0  0  0  0  0  0  0  0  0
    1.3380    2.5535    0.6059 N   0  0  0  0  0  0  0  0  0  0  0  0
    4.6323   -1.7199   -0.3426 N   0  0  0  0  0  0  0  0  0  0  0  0
    3.9689   -2.4457   -1.2580 N   0  0  0  0  0  0  0  0  0  0  0  0
   -1.1319   -4.4137    1.9690 N   0  0  0  0  0  0  0  0  0  0  0  0
    0.0737    2.6772   -0.0896 C   0  0  2  0  0  0  0  0  0  0  0  0
   -0.3855    4.1355   -0.0648 C   0  0  0  0  0  0  0  0  0  0  0  0
   -0.9696    1.7634    0.5671 C   0  0  0  0  0  0  0  0  0  0  0  0
   -1.7842    4.2636   -0.6581 C   0  0  0  0  0  0  0  0  0  0  0  0
   -2.7630    3.2983    0.0116 C   0  0  0  0  0  0  0  0  0  0  0  0
   -3.2537    0.9962    0.5229 C   0  0  0  0  0  0  0  0  0  0  0  0
    2.2160    1.5017    0.4152 C   0  0  0  0  0  0  0  0  0  0  0  0
   -3.0592   -0.4181    0.0447 C   0  0  0  0  0  0  0  0  0  0  0  0
    1.8882    0.4879   -0.4939 C   0  0  0  0  0  0  0  0  0  0  0  0
    3.4152    1.4660    1.1290 C   0  0  0  0  0  0  0  0  0  0  0  0
   -2.4488   -1.3583    0.8749 C   0  0  0  0  0  0  0  0  0  0  0  0
   -3.4895   -0.7878   -1.2296 C   0  0  0  0  0  0  0  0  0  0  0  0
    2.7942   -0.5706   -0.6739 C   0  0  0  0  0  0  0  0  0  0  0  0
    3.9813   -0.5816    0.0500 C   0  0  0  0  0  0  0  0  0  0  0  0
    4.3272    0.4190    0.9609 C   0  0  0  0  0  0  0  0  0  0  0  0
   -2.2686   -2.6682    0.4305 C   0  0  0  0  0  0  0  0  0  0  0  0
   -3.3092   -2.0977   -1.6739 C   0  0  0  0  0  0  0  0  0  0  0  0
    2.8512   -1.7435   -1.4569 C   0  0  0  0  0  0  0  0  0  0  0  0
   -2.6987   -3.0379   -0.8439 C   0  0  0  0  0  0  0  0  0  0  0  0
   -1.6413   -3.6315    1.2796 C   0  0  0  0  0  0  0  0  0  0  0  0
    0.1869    2.4190   -1.1508 H   0  0  0  0  0  0  0  0  0  0  0  0
   -0.3949    4.5131    0.9663 H   0  0  0  0  0  0  0  0  0  0  0  0
    0.3171    4.7672   -0.6216 H   0  0  0  0  0  0  0  0  0  0  0  0
   -0.6338    0.7253    0.4995 H   0  0  0  0  0  0  0  0  0  0  0  0
   -1.0388    1.9936    1.6402 H   0  0  0  0  0  0  0  0  0  0  0  0
   -1.7449    4.0594   -1.7356 H   0  0  0  0  0  0  0  0  0  0  0  0
   -2.1418    5.2929   -0.5413 H   0  0  0  0  0  0  0  0  0  0  0  0
   -2.9154    3.5929    1.0584 H   0  0  0  0  0  0  0  0  0  0  0  0
   -3.7296    3.3922   -0.4981 H   0  0  0  0  0  0  0  0  0  0  0  0
   -3.2381    1.0473    1.6203 H   0  0  0  0  0  0  0  0  0  0  0  0
   -4.2759    1.2829    0.2377 H   0  0  0  0  0  0  0  0  0  0  0  0
    1.5630    3.2321    1.3254 H   0  0  0  0  0  0  0  0  0  0  0  0
    0.9771    0.4706   -1.0788 H   0  0  0  0  0  0  0  0  0  0  0  0
    3.6592    2.2598    1.8324 H   0  0  0  0  0  0  0  0  0  0  0  0
   -2.1132   -1.0684    1.8685 H   0  0  0  0  0  0  0  0  0  0  0  0
   -3.9661   -0.0644   -1.8859 H   0  0  0  0  0  0  0  0  0  0  0  0
    5.2592    0.3894    1.5144 H   0  0  0  0  0  0  0  0  0  0  0  0
   -3.6439   -2.3852   -2.6663 H   0  0  0  0  0  0  0  0  0  0  0  0
    2.1227   -2.1145   -2.1639 H   0  0  0  0  0  0  0  0  0  0  0  0
   -2.5647   -4.0549   -1.2049 H   0  0  0  0  0  0  0  0  0  0  0  0
    5.5317   -2.0587   -0.0245 H   0  0  0  0  0  0  0  0  0  0  0  0
  1  8  1  0  0  0  0
  1 10  1  0  0  0  0
  1 11  1  0  0  0  0
  2  6  1  0  0  0  0
  2 12  1  0  0  0  0
  2 37  1  0  0  0  0
  3  4  1  0  0  0  0
  3 19  1  0  0  0  0
  3 46  1  0  0  0  0
  4 23  2  0  0  0  0
  5 25  3  0  0  0  0
  6  7  1  0  0  0  0
  6  8  1  0  0  0  0
  6 26  1  0  0  0  0
  7  9  1  0  0  0  0
  7 27  1  0  0  0  0
  7 28  1  0  0  0  0
  8 29  1  0  0  0  0
  8 30  1  0  0  0  0
  9 10  1  0  0  0  0
  9 31  1  0  0  0  0
  9 32  1  0  0  0  0
 10 33  1  0  0  0  0
 10 34  1  0  0  0  0
 11 13  1  0  0  0  0
 11 35  1  0  0  0  0
 11 36  1  0  0  0  0
 12 14  2  0  0  0  0
 12 15  1  0  0  0  0
 13 16  2  0  0  0  0
 13 17  1  0  0  0  0
 14 18  1  0  0  0  0
 14 38  1  0  0  0  0
 15 20  2  0  0  0  0
 15 39  1  0  0  0  0
 16 21  1  0  0  0  0
 16 40  1  0  0  0  0
 17 22  2  0  0  0  0
 17 41  1  0  0  0  0
 18 19  2  0  0  0  0
 18 23  1  0  0  0  0
 19 20  1  0  0  0  0
 20 42  1  0  0  0  0
 21 24  2  0  0  0  0
 21 25  1  0  0  0  0
 22 24  1  0  0  0  0
 22 43  1  0  0  0  0
 23 44  1  0  0  0  0
 24 45  1  0  0  0  0
M  END
> <PUBCHEM_COMPOUND_CID>
25009524

> <PUBCHEM_CONFORMER_RMSD>
0.8

> <PUBCHEM_CONFORMER_DIVERSEORDER>
1
365
37
245
27
312
263
71
241
145
48
415
163
57
304
328
250
296
41
95
301
142
294
324
318
353
405
314
180
390
257
159
293
421
197
135
309
289
94
344
298
286
419
279
196
73
35
186
351
114
251
277
276
131
106
249
128
36
387
300
91
285
270
253
299
291
69
152
414
228
247
74
345
2
184
97
80
13
339
234
203
87
129
26
146
360
359
183
321
119
401
125
213
216
376
284
420
349
222
53
66
174
130
88
256
5
404
411
236
395
340
12
295
112
338
381
93
243
204
179
78
343
206
400
229
348
211
248
417
242
226
173
167
190
42
33
369
327
85
92
7
47
399
394
84
64
181
341
297
96
230
246
225
418
207
288
306
149
127
224
269
386
188
68
413
101
195
315
331
259
254
368
379
24
17
172
220
380
337
137
290
313
170
389
8
260
115
82
187
185
267
153
303
55
375
158
342
14
406
397
61
214
335
410
144
156
352
361
140
265
252
307
268
407
209
139
168
336
124
273
244
272
355
382
28
308
357
322
275
138
311
177
117
6
202
319
62
373
123
292
90
310
191
261
189
200
374
316
60
363
199
231
278
171
70
178
165
302
40
155
175
136
396
408
133
9
20
377
198
210
264
110
157
332
235
402
409
154
75
147
325
31
238
320
356
208
151
212
237
44
15
126
233
86
65
105
271
367
266
378
403
347
354
192
3
22
372
4
103
98
240
38
412
10
104
283
232
282
371
219
364
350
58
329
384
398
89
223
45
109
281
150
25
51
160
99
116
56
121
422
77
83
258
81
164
205
323
32
385
217
102
19
143
305
59
362
182
346
18
148
215
54
113
227
132
333
134
334
330
370
416
239
166
366
193
255
280
39
100
274
176
221
162
391
67
34
76
107
358
72
23
50
201
63
21
79
161
287
383
52
326
218
388
122
118
141
108
43
317
393
11
29
262
423
194
392
30
46
120
49
16
111
169

> <PUBCHEM_MMFF94_PARTIAL_CHARGES>
32
1 -0.81
10 0.27
11 0.41
12 0.1
13 -0.14
14 -0.15
15 -0.15
16 -0.15
17 -0.15
19 -0.15
2 -0.87
20 -0.15
21 0.07
22 -0.15
23 0.14
24 -0.15
25 0.48
3 0.3
37 0.4
38 0.15
39 0.15
4 -0.71
40 0.15
41 0.15
42 0.15
43 0.15
44 0.15
45 0.15
46 0.27
5 -0.56
6 0.37
8 0.27

> <PUBCHEM_EFFECTIVE_ROTOR_COUNT>
5.2

> <PUBCHEM_PHARMACOPHORE_FEATURES>
10
1 1 cation
1 2 cation
1 2 donor
1 3 donor
1 4 acceptor
1 5 acceptor
5 3 4 18 19 23 rings
6 1 6 7 8 9 10 rings
6 12 14 15 18 19 20 rings
6 13 16 17 21 22 24 rings

> <PUBCHEM_HEAVY_ATOM_COUNT>
25

> <PUBCHEM_ATOM_DEF_STEREO_COUNT>
0

> <PUBCHEM_ATOM_UDEF_STEREO_COUNT>
1

> <PUBCHEM_BOND_DEF_STEREO_COUNT>
0

> <PUBCHEM_BOND_UDEF_STEREO_COUNT>
0

> <PUBCHEM_ISOTOPIC_ATOM_COUNT>
0

> <PUBCHEM_COMPONENT_COUNT>
1

> <PUBCHEM_CACTVS_TAUTO_COUNT>
2

> <PUBCHEM_CONFORMER_ID>
017D9D7400000001

> <PUBCHEM_MMFF94_ENERGY>
57.2199

> <PUBCHEM_FEATURE_SELFOVERLAP>
50.837

> <PUBCHEM_SHAPE_FINGERPRINT>
107951 10 17245009037861446681
1100329 8 17328301351306822338
11552529 35 17703787041587109192
12156800 1 16119019013988021085
12202916 173 17979042167103781930
12422481 6 18127721308462158931
12553582 1 18266189515690639445
13122387 1 17331690041705911166
13402501 40 18127978503081565340
1361 2 16034353805494253447
140371 6 18193831772417212833
14251757 5 18194709010949721198
14363568 33 17328324935029688824
14659021 117 18410000036235204034
14725015 67 18339078190348596899
17627616 140 17470452832942587731
17859628 97 18049730611614439841
19315092 285 16053485114633009791
19930381 70 17764021763586582983
23559900 14 17833536174370755009
3298306 158 17616533952314591709
445580 102 17543633483571139315
469060 322 17340364462852766132
5265222 85 17904227857244751404
5309563 4 17545889685963848771
550186 72 18338231695693439612
613672 6 18194105546126613187
7987 15 17756439505467774771
9709674 26 18341891892111709768

> <PUBCHEM_SHAPE_MULTIPOLES>
489.58
8.22
6.13
1.37
6.46
2.02
0.01
-4.83
-0.93
-4.11
0.66
-0.25
-1.33
1.48

> <PUBCHEM_SHAPE_SELFOVERLAP>
1065.628

> <PUBCHEM_SHAPE_VOLUME>
263.7

> <PUBCHEM_COORDINATE_TYPE>
2
5
10

$$$$
25009891
  -OEChem-05102415113D

 52 55  0     1  0  0  0  0  0999 V2000
   -4.6466   -1.6748    1.3688 O   0  0  0  0  0  0  0  0  0  0  0  0
    0.8199    3.0998   -0.0714 N   0  0  2  0  0  0  0  0  0  0  0  0
    3.4637    0.4989    0.4144 N   0  0  0  0  0  0  0  0  0  0  0  0
    1.7156   -4.6644   -0.1328 N   0  0  0  0  0  0  0  0  0  0  0  0
    0.6430   -4.5618   -0.9352 N   0  0  0  0  0  0  0  0  0  0  0  0
   -4.5772   -0.2766   -0.5281 N   0  0  0  0  0  0  0  0  0  0  0  0
    2.7725    1.5845   -0.2499 C   0  0  2  0  0  0  0  0  0  0  0  0
    3.7095    2.7857   -0.3812 C   0  0  0  0  0  0  0  0  0  0  0  0
    1.5122    1.9571    0.5424 C   0  0  0  0  0  0  0  0  0  0  0  0
    2.9579    3.9888   -0.9402 C   0  0  0  0  0  0  0  0  0  0  0  0
    1.6934    4.2797   -0.1311 C   0  0  0  0  0  0  0  0  0  0  0  0
   -0.4078    3.4087    0.6616 C   0  0  0  0  0  0  0  0  0  0  0  0
   -1.5100    2.4328    0.3462 C   0  0  0  0  0  0  0  0  0  0  0  0
    3.0762   -0.8257    0.3199 C   0  0  0  0  0  0  0  0  0  0  0  0
    1.9579   -1.1621   -0.4533 C   0  0  0  0  0  0  0  0  0  0  0  0
    3.8047   -1.8073    0.9942 C   0  0  0  0  0  0  0  0  0  0  0  0
   -2.2016    2.5282   -0.8612 C   0  0  0  0  0  0  0  0  0  0  0  0
   -1.8403    1.4340    1.2623 C   0  0  0  0  0  0  0  0  0  0  0  0
    1.5819   -2.5132   -0.5371 C   0  0  0  0  0  0  0  0  0  0  0  0
    2.3250   -3.4705    0.1446 C   0  0  0  0  0  0  0  0  0  0  0  0
    3.4429   -3.1564    0.9206 C   0  0  0  0  0  0  0  0  0  0  0  0
   -3.2236    1.6249   -1.1527 C   0  0  0  0  0  0  0  0  0  0  0  0
   -2.8623    0.5307    0.9708 C   0  0  0  0  0  0  0  0  0  0  0  0
   -3.5540    0.6261   -0.2368 C   0  0  0  0  0  0  0  0  0  0  0  0
    0.5648   -3.2517   -1.1789 C   0  0  0  0  0  0  0  0  0  0  0  0
   -5.0465   -1.3360    0.2597 C   0  0  0  0  0  0  0  0  0  0  0  0
   -6.1714   -2.0796   -0.4158 C   0  0  0  0  0  0  0  0  0  0  0  0
    2.5034    1.3035   -1.2767 H   0  0  0  0  0  0  0  0  0  0  0  0
    4.1313    3.0470    0.5984 H   0  0  0  0  0  0  0  0  0  0  0  0
    4.5584    2.5394   -1.0303 H   0  0  0  0  0  0  0  0  0  0  0  0
    0.8445    1.0928    0.5861 H   0  0  0  0  0  0  0  0  0  0  0  0
    1.7846    2.1866    1.5828 H   0  0  0  0  0  0  0  0  0  0  0  0
    3.6118    4.8682   -0.9332 H   0  0  0  0  0  0  0  0  0  0  0  0
    2.6895    3.7986   -1.9871 H   0  0  0  0  0  0  0  0  0  0  0  0
    1.1670    5.1103   -0.6170 H   0  0  0  0  0  0  0  0  0  0  0  0
    1.9686    4.6131    0.8783 H   0  0  0  0  0  0  0  0  0  0  0  0
   -0.2314    3.4679    1.7444 H   0  0  0  0  0  0  0  0  0  0  0  0
   -0.7821    4.4026    0.3778 H   0  0  0  0  0  0  0  0  0  0  0  0
    4.2281    0.7239    1.0419 H   0  0  0  0  0  0  0  0  0  0  0  0
    1.3631   -0.4431   -1.0026 H   0  0  0  0  0  0  0  0  0  0  0  0
    4.6722   -1.5338    1.5917 H   0  0  0  0  0  0  0  0  0  0  0  0
   -1.9535    3.3021   -1.5829 H   0  0  0  0  0  0  0  0  0  0  0  0
   -1.3086    1.3493    2.2065 H   0  0  0  0  0  0  0  0  0  0  0  0
    4.0074   -3.9203    1.4435 H   0  0  0  0  0  0  0  0  0  0  0  0
   -3.7543    1.7111   -2.0975 H   0  0  0  0  0  0  0  0  0  0  0  0
   -3.0603   -0.2147    1.7283 H   0  0  0  0  0  0  0  0  0  0  0  0
   -0.2305   -2.8875   -1.8138 H   0  0  0  0  0  0  0  0  0  0  0  0
    1.9819   -5.5850    0.1938 H   0  0  0  0  0  0  0  0  0  0  0  0
   -5.0330   -0.1405   -1.4280 H   0  0  0  0  0  0  0  0  0  0  0  0
   -6.4945   -2.9139    0.2130 H   0  0  0  0  0  0  0  0  0  0  0  0
   -7.0173   -1.4050   -0.5743 H   0  0  0  0  0  0  0  0  0  0  0  0
   -5.8315   -2.4724   -1.3783 H   0  0  0  0  0  0  0  0  0  0  0  0
  1 26  2  0  0  0  0
  2  9  1  0  0  0  0
  2 11  1  0  0  0  0
  2 12  1  0  0  0  0
  3  7  1  0  0  0  0
  3 14  1  0  0  0  0
  3 39  1  0  0  0  0
  4  5  1  0  0  0  0
  4 20  1  0  0  0  0
  4 48  1  0  0  0  0
  5 25  2  0  0  0  0
  6 24  1  0  0  0  0
  6 26  1  0  0  0  0
  6 49  1  0  0  0  0
  7  8  1  0  0  0  0
  7  9  1  0  0  0  0
  7 28  1  0  0  0  0
  8 10  1  0  0  0  0
  8 29  1  0  0  0  0
  8 30  1  0  0  0  0
  9 31  1  0  0  0  0
  9 32  1  0  0  0  0
 10 11  1  0  0  0  0
 10 33  1  0  0  0  0
 10 34  1  0  0  0  0
 11 35  1  0  0  0  0
 11 36  1  0  0  0  0
 12 13  1  0  0  0  0
 12 37  1  0  0  0  0
 12 38  1  0  0  0  0
 13 17  2  0  0  0  0
 13 18  1  0  0  0  0
 14 15  2  0  0  0  0
 14 16  1  0  0  0  0
 15 19  1  0  0  0  0
 15 40  1  0  0  0  0
 16 21  2  0  0  0  0
 16 41  1  0  0  0  0
 17 22  1  0  0  0  0
 17 42  1  0  0  0  0
 18 23  2  0  0  0  0
 18 43  1  0  0  0  0
 19 20  2  0  0  0  0
 19 25  1  0  0  0  0
 20 21  1  0  0  0  0
 21 44  1  0  0  0  0
 22 24  2  0  0  0  0
 22 45  1  0  0  0  0
 23 24  1  0  0  0  0
 23 46  1  0  0  0  0
 25 47  1  0  0  0  0
 26 27  1  0  0  0  0
 27 50  1  0  0  0  0
 27 51  1  0  0  0  0
 27 52  1  0  0  0  0
M  END
> <PUBCHEM_COMPOUND_CID>
25009891

> <PUBCHEM_CONFORMER_RMSD>
0.8

> <PUBCHEM_CONFORMER_DIVERSEORDER>
1
221
98
333
337
155
101
339
375
247
229
28
134
179
184
76
198
103
174
279
111
239
16
159
253
96
122
329
89
126
354
228
272
287
162
166
295
78
311
255
8
310
296
324
182
307
256
189
336
346
351
347
249
7
334
342
23
22
181
48
293
196
85
305
328
49
158
350
235
219
276
377
135
36
338
88
303
250
79
86
231
172
297
330
171
169
344
361
309
315
147
52
124
127
280
254
379
18
29
378
224
318
376
170
321
118
186
244
141
225
348
320
46
58
268
372
63
261
66
308
236
304
54
234
117
31
34
90
223
38
332
137
238
371
240
59
275
129
180
164
367
143
365
264
95
299
156
199
306
144
87
208
210
246
212
322
237
243
157
331
364
362
115
294
19
313
123
278
241
352
132
173
327
151
366
35
39
271
230
373
355
74
316
370
286
257
211
83
154
153
206
5
149
335
265
114
341
283
121
9
200
80
195
133
251
359
56
349
176
262
68
374
301
369
15
216
232
267
177
314
258
152
274
128
107
93
21
84
209
43
190
317
140
282
270
197
259
81
163
289
288
32
102
55
269
290
380
185
42
300
17
99
325
82
2
345
205
214
30
213
312
222
25
292
363
150
3
20
291
360
106
285
266
100
146
131
302
6
165
356
145
53
77
178
217
139
70
207
50
71
260
62
252
215
61
104
105
67
73
116
60
284
94
168
175
188
323
108
125
227
281
148
160
136
142
248
12
91
358
202
110
4
41
75
298
47
193
204
191
220
326
263
340
319
201
51
45
226
138
109
92
194
130
44
273
192
10
203
187
24
27
113
33
40
368
161
69
233
120
119
245
218
357
72
11
97
277
242
183
343
37
353
26
65
57
167
112
64
14
13

> <PUBCHEM_MMFF94_PARTIAL_CHARGES>
35
1 -0.57
11 0.27
12 0.41
13 -0.14
14 0.1
15 -0.15
16 -0.15
17 -0.15
18 -0.15
2 -0.81
20 -0.15
21 -0.15
22 -0.15
23 -0.15
24 0.12
25 0.14
26 0.57
27 0.06
3 -0.87
39 0.4
4 0.3
40 0.15
41 0.15
42 0.15
43 0.15
44 0.15
45 0.15
46 0.15
47 0.15
48 0.27
49 0.37
5 -0.71
6 -0.55
7 0.37
9 0.27

> <PUBCHEM_EFFECTIVE_ROTOR_COUNT>
7.2

> <PUBCHEM_PHARMACOPHORE_FEATURES>
11
1 1 acceptor
1 2 cation
1 3 cation
1 3 donor
1 4 donor
1 5 acceptor
1 6 donor
5 4 5 19 20 25 rings
6 13 17 18 22 23 24 rings
6 14 15 16 19 20 21 rings
6 2 7 8 9 10 11 rings

> <PUBCHEM_HEAVY_ATOM_COUNT>
27

> <PUBCHEM_ATOM_DEF_STEREO_COUNT>
0

> <PUBCHEM_ATOM_UDEF_STEREO_COUNT>
1

> <PUBCHEM_BOND_DEF_STEREO_COUNT>
0

> <PUBCHEM_BOND_UDEF_STEREO_COUNT>
0

> <PUBCHEM_ISOTOPIC_ATOM_COUNT>
0

> <PUBCHEM_COMPONENT_COUNT>
1

> <PUBCHEM_CACTVS_TAUTO_COUNT>
4

> <PUBCHEM_CONFORMER_ID>
017D9EE300000001

> <PUBCHEM_MMFF94_ENERGY>
70.0195

> <PUBCHEM_FEATURE_SELFOVERLAP>
55.913

> <PUBCHEM_SHAPE_FINGERPRINT>
1100329 8 18123746728246169424
11014199 57 18123754153664310550
12107183 9 18197229044857707769
12156800 1 16895714405405637716
12553582 1 17907030482187214372
12788726 201 16680903978987884840
13122387 1 18124877863064037702
1361 2 18122342643217686369
14251757 5 16685155167218052598
14659021 117 17328011080352958850
14866123 147 17690842685041700636
15110567 62 18267868470215408617
15483637 11 17329992911291229119
16992727 255 12495088681501457765
17138139 8 17269464727726006151
19930381 70 18410573972693810763
20028762 73 18200879581810574686
20764821 26 17979620561732901175
20775438 99 17688545483087078045
20775530 9 18189908517149120867
21133410 52 18339909499008185142
21133410 62 17759782034297910039
21315759 227 18263915540966144823
21344244 181 17912953809256210380
23559900 14 18337380535752466137
23572383 38 18049139104106624899
3882209 13 17759485951699178571
4280585 95 17973712581156665152
445580 102 18411416168393673247
5047190 2 17841422945845001943
5309563 4 18412262818122048241
613672 6 18049424959923681654
6433294 58 18337390543094636235
9709674 26 17115219271109358376

> <PUBCHEM_SHAPE_MULTIPOLES>
524.87
9.7
7.25
1.11
13.9
1.87
0.06
4.87
0.56
-6.45
-1.33
0.3
0.12
-0.63

> <PUBCHEM_SHAPE_SELFOVERLAP>
1133.166

> <PUBCHEM_SHAPE_VOLUME>
288.9

> <PUBCHEM_COORDINATE_TYPE>
2
5
10

$$$$
25009525
  -OEChem-05102415113D

 48 51  0     1  0  0  0  0  0999 V2000
    4.8908    2.2433    0.0252 S   0  0  0  0  0  0  0  0  0  0  0  0
    5.1433    2.7291    1.3743 O   0  0  0  0  0  0  0  0  0  0  0  0
    6.0033    2.0615   -0.8974 O   0  0  0  0  0  0  0  0  0  0  0  0
    0.6342   -2.9424   -0.3584 N   0  0  2  0  0  0  0  0  0  0  0  0
   -2.7556   -2.0140    0.1646 N   0  0  0  0  0  0  0  0  0  0  0  0
   -4.8851    3.0363    0.1990 N   0  0  0  0  0  0  0  0  0  0  0  0
   -4.1005    3.7264   -0.6454 N   0  0  0  0  0  0  0  0  0  0  0  0
   -1.6022   -2.3225   -0.6471 C   0  0  2  0  0  0  0  0  0  0  0  0
   -1.4629   -3.8299   -0.8698 C   0  0  0  0  0  0  0  0  0  0  0  0
   -0.3131   -1.9067    0.0572 C   0  0  0  0  0  0  0  0  0  0  0  0
   -0.1144   -4.1954   -0.2630 C   0  0  0  0  0  0  0  0  0  0  0  0
    1.8394   -2.9525    0.4575 C   0  0  0  0  0  0  0  0  0  0  0  0
    2.6002   -1.6577    0.3504 C   0  0  0  0  0  0  0  0  0  0  0  0
   -3.3434   -0.7603    0.2210 C   0  0  0  0  0  0  0  0  0  0  0  0
    2.5389   -0.7247    1.3855 C   0  0  0  0  0  0  0  0  0  0  0  0
    3.3655   -1.3907   -0.7848 C   0  0  0  0  0  0  0  0  0  0  0  0
   -2.8088    0.2855   -0.5419 C   0  0  0  0  0  0  0  0  0  0  0  0
   -4.4593   -0.5577    1.0352 C   0  0  0  0  0  0  0  0  0  0  0  0
   -3.4204    1.5483   -0.4713 C   0  0  0  0  0  0  0  0  0  0  0  0
    4.0083    0.7422    0.1503 C   0  0  0  0  0  0  0  0  0  0  0  0
    3.2428    0.4752    1.2854 C   0  0  0  0  0  0  0  0  0  0  0  0
    4.0696   -0.1908   -0.8850 C   0  0  0  0  0  0  0  0  0  0  0  0
   -4.5305    1.7226    0.3476 C   0  0  0  0  0  0  0  0  0  0  0  0
   -5.0791    0.6936    1.1160 C   0  0  0  0  0  0  0  0  0  0  0  0
   -3.2105    2.8179   -1.0511 C   0  0  0  0  0  0  0  0  0  0  0  0
    3.7495    3.3631   -0.7541 C   0  0  0  0  0  0  0  0  0  0  0  0
   -1.6777   -1.8728   -1.6453 H   0  0  0  0  0  0  0  0  0  0  0  0
   -0.4463   -1.8917    1.1478 H   0  0  0  0  0  0  0  0  0  0  0  0
   -0.0007   -0.9087   -0.2668 H   0  0  0  0  0  0  0  0  0  0  0  0
   -1.4518   -4.0396   -1.9471 H   0  0  0  0  0  0  0  0  0  0  0  0
   -2.2724   -4.4219   -0.4297 H   0  0  0  0  0  0  0  0  0  0  0  0
    0.3683   -5.0082   -0.8145 H   0  0  0  0  0  0  0  0  0  0  0  0
   -0.2508   -4.5105    0.7795 H   0  0  0  0  0  0  0  0  0  0  0  0
    1.6098   -3.1643    1.5110 H   0  0  0  0  0  0  0  0  0  0  0  0
    2.5022   -3.7645    0.1295 H   0  0  0  0  0  0  0  0  0  0  0  0
   -3.1059   -2.7241    0.7984 H   0  0  0  0  0  0  0  0  0  0  0  0
    1.9443   -0.9183    2.2744 H   0  0  0  0  0  0  0  0  0  0  0  0
    3.4197   -2.1093   -1.5984 H   0  0  0  0  0  0  0  0  0  0  0  0
   -1.9439    0.1781   -1.1848 H   0  0  0  0  0  0  0  0  0  0  0  0
   -4.8660   -1.3781    1.6231 H   0  0  0  0  0  0  0  0  0  0  0  0
    3.1746    1.1904    2.1003 H   0  0  0  0  0  0  0  0  0  0  0  0
    4.6543   -0.0005   -1.7806 H   0  0  0  0  0  0  0  0  0  0  0  0
   -5.9459    0.8529    1.7477 H   0  0  0  0  0  0  0  0  0  0  0  0
   -2.4448    3.1173   -1.7528 H   0  0  0  0  0  0  0  0  0  0  0  0
   -5.6520    3.5238    0.6451 H   0  0  0  0  0  0  0  0  0  0  0  0
    2.8638    3.4629   -0.1239 H   0  0  0  0  0  0  0  0  0  0  0  0
    3.4841    2.9723   -1.7383 H   0  0  0  0  0  0  0  0  0  0  0  0
    4.2431    4.3316   -0.8586 H   0  0  0  0  0  0  0  0  0  0  0  0
  1  2  2  0  0  0  0
  1  3  2  0  0  0  0
  1 20  1  0  0  0  0
  1 26  1  0  0  0  0
  4 10  1  0  0  0  0
  4 11  1  0  0  0  0
  4 12  1  0  0  0  0
  5  8  1  0  0  0  0
  5 14  1  0  0  0  0
  5 36  1  0  0  0  0
  6  7  1  0  0  0  0
  6 23  1  0  0  0  0
  6 45  1  0  0  0  0
  7 25  2  0  0  0  0
  8  9  1  0  0  0  0
  8 10  1  0  0  0  0
  8 27  1  0  0  0  0
  9 11  1  0  0  0  0
  9 30  1  0  0  0  0
  9 31  1  0  0  0  0
 10 28  1  0  0  0  0
 10 29  1  0  0  0  0
 11 32  1  0  0  0  0
 11 33  1  0  0  0  0
 12 13  1  0  0  0  0
 12 34  1  0  0  0  0
 12 35  1  0  0  0  0
 13 15  2  0  0  0  0
 13 16  1  0  0  0  0
 14 17  2  0  0  0  0
 14 18  1  0  0  0  0
 15 21  1  0  0  0  0
 15 37  1  0  0  0  0
 16 22  2  0  0  0  0
 16 38  1  0  0  0  0
 17 19  1  0  0  0  0
 17 39  1  0  0  0  0
 18 24  2  0  0  0  0
 18 40  1  0  0  0  0
 19 23  2  0  0  0  0
 19 25  1  0  0  0  0
 20 21  2  0  0  0  0
 20 22  1  0  0  0  0
 21 41  1  0  0  0  0
 22 42  1  0  0  0  0
 23 24  1  0  0  0  0
 24 43  1  0  0  0  0
 25 44  1  0  0  0  0
 26 46  1  0  0  0  0
 26 47  1  0  0  0  0
 26 48  1  0  0  0  0
M  END
> <PUBCHEM_COMPOUND_CID>
25009525

> <PUBCHEM_CONFORMER_RMSD>
1

> <PUBCHEM_CONFORMER_DIVERSEORDER>
1
134
122
163
172
199
399
465
169
295
373
99
63
367
120
31
135
470
137
128
62
29
205
107
8
95
2
103
129
98
305
200
429
76
468
23
113
266
505
46
248
93
377
81
446
118
180
149
282
9
438
101
430
228
447
206
249
389
45
323
208
105
92
348
434
225
55
291
10
254
260
132
141
159
15
300
293
503
375
16
61
193
209
187
346
67
21
56
165
455
32
100
7
482
13
121
115
35
268
390
351
89
280
340
283
454
414
43
133
26
289
272
160
53
466
496
314
90
4
478
148
290
460
273
5
145
155
504
154
350
318
431
27
127
34
19
166
173
185
326
25
245
486
22
91
262
518
360

> <PUBCHEM_MMFF94_PARTIAL_CHARGES>
34
1 1.2
10 0.27
11 0.27
12 0.41
13 -0.14
14 0.1
15 -0.15
16 -0.15
17 -0.15
18 -0.15
2 -0.65
20 -0.01
21 -0.15
22 -0.15
23 -0.15
24 -0.15
25 0.14
26 0.11
3 -0.65
36 0.4
37 0.15
38 0.15
39 0.15
4 -0.81
40 0.15
41 0.15
42 0.15
43 0.15
44 0.15
45 0.27
5 -0.87
6 0.3
7 -0.71
8 0.37

> <PUBCHEM_EFFECTIVE_ROTOR_COUNT>
6

> <PUBCHEM_PHARMACOPHORE_FEATURES>
11
1 2 acceptor
1 3 acceptor
1 4 cation
1 5 cation
1 5 donor
1 6 donor
1 7 acceptor
5 4 8 9 10 11 rings
5 6 7 19 23 25 rings
6 13 15 16 20 21 22 rings
6 14 17 18 19 23 24 rings

> <PUBCHEM_HEAVY_ATOM_COUNT>
26

> <PUBCHEM_ATOM_DEF_STEREO_COUNT>
0

> <PUBCHEM_ATOM_UDEF_STEREO_COUNT>
1

> <PUBCHEM_BOND_DEF_STEREO_COUNT>
0

> <PUBCHEM_BOND_UDEF_STEREO_COUNT>
0

> <PUBCHEM_ISOTOPIC_ATOM_COUNT>
0

> <PUBCHEM_COMPONENT_COUNT>
1

> <PUBCHEM_CACTVS_TAUTO_COUNT>
2

> <PUBCHEM_CONFORMER_ID>
017D9D7500000001

> <PUBCHEM_MMFF94_ENERGY>
62.477

> <PUBCHEM_FEATURE_SELFOVERLAP>
55.93

> <PUBCHEM_SHAPE_FINGERPRINT>
10670039 82 18267583696861654564
10871710 139 18268705177226732911
10917259 128 17904202882775881244
10937287 8 18411694374636910751
11014199 57 17617940678494416418
11059048 146 17912376328790551576
11513181 2 18272933825558098326
11720765 8 17701267928322065430
12100795 323 18262227820719216285
12107183 9 18335965508023376986
12363563 72 8574419967847774299
12769317 202 18127405644850023811
12788726 201 18123171665947552899
12925494 130 18120094979643117237
12978246 48 18262799686914272692
13617811 41 18193543683570219941
13944108 23 17836089961724593860
13965767 371 18041551447837093254
14114206 34 16988571164722090577
14114211 80 18130802139642390099
14251764 38 18049441440304235089
14251764 75 18342746174044774449
14347329 18 18340203085485722096
14468879 13 18261961743580031131
1454969 45 18340768243564665995
14790565 3 18410579508674838952
14848178 5 9223228520528121115
14848178 96 18270113488138258747
14950920 106 17240754073489584050
151778 21 18339358548374866979
15320291 9 17831568782585591116
15322535 138 18339065107815020064
15575132 122 18335700563947961477
16988056 13 17620189836919227838
16992727 255 18263382338921223134
17868525 174 17684643229914436842
21133410 127 18113902602758445484
21302155 148 18408321103217471752
21388113 180 18339644447315819525
21475661 188 17975127644132203403
21734292 116 18410856581178267393
21859007 373 17984416619650085272
21860390 5 17409360681527659575
21864079 5 18410284800756306814
22864921 10 18259990344922546532
23559900 14 17834111944938750227
245318 6 18041859379474939005
3146121 3 18340207394240883057
325973 47 17833265320442303685
3459 39 18199728376172572304
345986 75 12469506863853104407
437795 96 18042113267982683229
474144 1 17314812881801330837
5048184 11 18411979182534077656
508706 21 18055906847647666944
5252454 2 18201435895860390003
550186 72 18410575124315063597
653340 110 18051965111532205584
6608658 132 17983001538508584991
6700243 42 16973968822020466246
7288768 16 18040715913051661138
7808743 9 18339360893738461378
9849439 229 18339911662884770755

> <PUBCHEM_SHAPE_MULTIPOLES>
507.25
13.06
5.61
1.15
2.81
0.97
-0.19
-14.71
-1.22
-0.9
1.42
0.36
-0.21
0.22

> <PUBCHEM_SHAPE_SELFOVERLAP>
1090.922

> <PUBCHEM_SHAPE_VOLUME>
282.8

> <PUBCHEM_COORDINATE_TYPE>
2
5
10

$$$$
25009526
  -OEChem-05102415113D

 43 46  0     1  0  0  0  0  0999 V2000
    1.5339   -1.8831   -0.0392 N   0  0  2  0  0  0  0  0  0  0  0  0
   -2.0126   -2.0895   -0.1155 N   0  0  0  0  0  0  0  0  0  0  0  0
   -5.6198    2.0313    0.1065 N   0  0  0  0  0  0  0  0  0  0  0  0
   -4.9736    3.0610   -0.4655 N   0  0  0  0  0  0  0  0  0  0  0  0
    6.5786    1.5551   -1.9936 N   0  0  0  0  0  0  0  0  0  0  0  0
   -0.7083   -1.8970   -0.7036 C   0  0  2  0  0  0  0  0  0  0  0  0
   -0.0619   -3.2323   -1.0785 C   0  0  0  0  0  0  0  0  0  0  0  0
    0.2526   -1.2605    0.2975 C   0  0  0  0  0  0  0  0  0  0  0  0
    1.2191   -3.2949   -0.2569 C   0  0  0  0  0  0  0  0  0  0  0  0
    2.5347   -1.6915    1.0000 C   0  0  0  0  0  0  0  0  0  0  0  0
   -2.9709   -1.0924   -0.0261 C   0  0  0  0  0  0  0  0  0  0  0  0
    3.1998   -0.3447    0.8967 C   0  0  0  0  0  0  0  0  0  0  0  0
   -2.6847    0.1841   -0.5262 C   0  0  0  0  0  0  0  0  0  0  0  0
   -4.2068   -1.3740    0.5592 C   0  0  0  0  0  0  0  0  0  0  0  0
    4.1671   -0.1171   -0.0821 C   0  0  0  0  0  0  0  0  0  0  0  0
    2.8485    0.6756    1.7807 C   0  0  0  0  0  0  0  0  0  0  0  0
   -3.6704    1.1803   -0.4269 C   0  0  0  0  0  0  0  0  0  0  0  0
   -4.8926    0.8729    0.1606 C   0  0  0  0  0  0  0  0  0  0  0  0
   -5.1980   -0.3929    0.6653 C   0  0  0  0  0  0  0  0  0  0  0  0
    4.7831    1.1307   -0.1770 C   0  0  0  0  0  0  0  0  0  0  0  0
    3.4644    1.9234    1.6858 C   0  0  0  0  0  0  0  0  0  0  0  0
   -3.7880    2.5395   -0.7885 C   0  0  0  0  0  0  0  0  0  0  0  0
    4.4318    2.1510    0.7069 C   0  0  0  0  0  0  0  0  0  0  0  0
    5.7739    1.3649   -1.1794 C   0  0  0  0  0  0  0  0  0  0  0  0
   -0.7648   -1.3144   -1.6320 H   0  0  0  0  0  0  0  0  0  0  0  0
    0.1853   -3.2301   -2.1479 H   0  0  0  0  0  0  0  0  0  0  0  0
   -0.6989   -4.1034   -0.8919 H   0  0  0  0  0  0  0  0  0  0  0  0
    0.2890   -0.1730    0.1781 H   0  0  0  0  0  0  0  0  0  0  0  0
   -0.0491   -1.4817    1.3303 H   0  0  0  0  0  0  0  0  0  0  0  0
    2.0158   -3.8190   -0.7941 H   0  0  0  0  0  0  0  0  0  0  0  0
    1.0293   -3.8176    0.6895 H   0  0  0  0  0  0  0  0  0  0  0  0
    3.3303   -2.4427    0.8936 H   0  0  0  0  0  0  0  0  0  0  0  0
    2.1254   -1.8531    2.0064 H   0  0  0  0  0  0  0  0  0  0  0  0
   -2.2134   -2.9737    0.3391 H   0  0  0  0  0  0  0  0  0  0  0  0
   -1.7406    0.4510   -0.9848 H   0  0  0  0  0  0  0  0  0  0  0  0
   -4.4178   -2.3699    0.9439 H   0  0  0  0  0  0  0  0  0  0  0  0
    4.4392   -0.9148   -0.7705 H   0  0  0  0  0  0  0  0  0  0  0  0
    2.0952    0.5119    2.5466 H   0  0  0  0  0  0  0  0  0  0  0  0
   -6.1585   -0.6097    1.1194 H   0  0  0  0  0  0  0  0  0  0  0  0
    3.1904    2.7180    2.3737 H   0  0  0  0  0  0  0  0  0  0  0  0
   -3.0573    3.1706   -1.2744 H   0  0  0  0  0  0  0  0  0  0  0  0
    4.9028    3.1292    0.6455 H   0  0  0  0  0  0  0  0  0  0  0  0
   -6.5624    2.1857    0.4418 H   0  0  0  0  0  0  0  0  0  0  0  0
  1  8  1  0  0  0  0
  1  9  1  0  0  0  0
  1 10  1  0  0  0  0
  2  6  1  0  0  0  0
  2 11  1  0  0  0  0
  2 34  1  0  0  0  0
  3  4  1  0  0  0  0
  3 18  1  0  0  0  0
  3 43  1  0  0  0  0
  4 22  2  0  0  0  0
  5 24  3  0  0  0  0
  6  7  1  0  0  0  0
  6  8  1  0  0  0  0
  6 25  1  0  0  0  0
  7  9  1  0  0  0  0
  7 26  1  0  0  0  0
  7 27  1  0  0  0  0
  8 28  1  0  0  0  0
  8 29  1  0  0  0  0
  9 30  1  0  0  0  0
  9 31  1  0  0  0  0
 10 12  1  0  0  0  0
 10 32  1  0  0  0  0
 10 33  1  0  0  0  0
 11 13  2  0  0  0  0
 11 14  1  0  0  0  0
 12 15  2  0  0  0  0
 12 16  1  0  0  0  0
 13 17  1  0  0  0  0
 13 35  1  0  0  0  0
 14 19  2  0  0  0  0
 14 36  1  0  0  0  0
 15 20  1  0  0  0  0
 15 37  1  0  0  0  0
 16 21  2  0  0  0  0
 16 38  1  0  0  0  0
 17 18  2  0  0  0  0
 17 22  1  0  0  0  0
 18 19  1  0  0  0  0
 19 39  1  0  0  0  0
 20 23  2  0  0  0  0
 20 24  1  0  0  0  0
 21 23  1  0  0  0  0
 21 40  1  0  0  0  0
 22 41  1  0  0  0  0
 23 42  1  0  0  0  0
M  END
> <PUBCHEM_COMPOUND_CID>
25009526

> <PUBCHEM_CONFORMER_RMSD>
1

> <PUBCHEM_CONFORMER_DIVERSEORDER>
3
83
286
110
325
416
297
2
419
393
20
434
209
12
142
140
165
492
116
43
84
11
366
481
238
146
497
111
1
80
360
334
276
134
459
402
220
139
13
246
126
348
31
158
85
6
435
383
513
23
28
263
198
167
443
60
282
176
81
326
203
10
437
54
48
520
343
125
42
67
159
253
185
178
314
151
44
208
63
50
141
4
350
476
502
471
377
429
303
14
211
339
106
243
153
277
21
370
361
169
418
179
327
78
268
9
504
5
489
381
323
216
407
212
469
18
45
201
82
175
156
119
52
29
291
53
148
234
241
8
17
215
349
193
32
102
76
302
136
127
46
69
462
473
262
91
204
24
61
74
463
213
93
19
293
123
87
450
47
120
230
414
285
218
7
161
144
267
495
516
37
95

> <PUBCHEM_MMFF94_PARTIAL_CHARGES>
32
1 -0.81
10 0.41
11 0.1
12 -0.14
13 -0.15
14 -0.15
15 -0.15
16 -0.15
18 -0.15
19 -0.15
2 -0.87
20 0.07
21 -0.15
22 0.14
23 -0.15
24 0.48
3 0.3
34 0.4
35 0.15
36 0.15
37 0.15
38 0.15
39 0.15
4 -0.71
40 0.15
41 0.15
42 0.15
43 0.27
5 -0.56
6 0.37
8 0.27
9 0.27

> <PUBCHEM_EFFECTIVE_ROTOR_COUNT>
5

> <PUBCHEM_PHARMACOPHORE_FEATURES>
10
1 1 cation
1 2 cation
1 2 donor
1 3 donor
1 4 acceptor
1 5 acceptor
5 1 6 7 8 9 rings
5 3 4 17 18 22 rings
6 11 13 14 17 18 19 rings
6 12 15 16 20 21 23 rings

> <PUBCHEM_HEAVY_ATOM_COUNT>
24

> <PUBCHEM_ATOM_DEF_STEREO_COUNT>
0

> <PUBCHEM_ATOM_UDEF_STEREO_COUNT>
1

> <PUBCHEM_BOND_DEF_STEREO_COUNT>
0

> <PUBCHEM_BOND_UDEF_STEREO_COUNT>
0

> <PUBCHEM_ISOTOPIC_ATOM_COUNT>
0

> <PUBCHEM_COMPONENT_COUNT>
1

> <PUBCHEM_CACTVS_TAUTO_COUNT>
2

> <PUBCHEM_CONFORMER_ID>
017D9D7600000003

> <PUBCHEM_MMFF94_ENERGY>
61.0503

> <PUBCHEM_FEATURE_SELFOVERLAP>
50.837

> <PUBCHEM_SHAPE_FINGERPRINT>
10670039 82 18337390543205399860
11059048 146 17986398788762157585
11315621 246 17630881810543136831
11595378 159 16588580894815903981
11720765 8 17775008926301504030
11973864 155 17338456483492997081
12363563 72 8285923535393254386
12390115 104 18343028800119906987
12403259 118 18266438984492283795
12596602 18 16732980955271932961
12769317 202 18130217177422582954
12925494 130 18268143168182704153
13878862 14 17975668650881341333
13944108 23 17909272377585067876
14251764 38 18124030135826385833
14341114 328 17240478143531695848
14347329 18 18410011065764208088
1454969 45 18270395118467716871
14840074 17 17676208008887237076
14848178 5 8790892886401825650
14848178 96 18270954657404098169
14950920 106 17313928762714442082
151778 21 18340476786192162706
15183329 4 17560536061825453246
15238133 3 18410282624062216250
15510800 12 7925637721293281833
15575132 122 18409168843930733109
15961568 22 18187086143884000013
16992727 255 18336838593354911252
17868525 174 17902777583990631122
20567600 9 18271810064597325840
20626108 58 11024106538689356722
21033648 29 18272080651837411264
21223535 225 16845305890755651840
21302155 148 18333735706230165813
21315763 87 13479133514283806417
21458453 9 12397438463740906204
21864079 5 18270663351073316522
22864921 10 18114184086562239892
23559900 14 18055062164993870459
245318 6 17896052090100987092
2838139 119 18342165696350611334
312425 83 13470393496644733499
3298306 158 18272923912846989465
345986 75 13118858635602572959
4058900 60 18336273344528129474
508706 21 18199460150642565239
5104073 3 18189337875489755723
5252454 2 18338222839110886494
5911458 16 17532107153734550164
7808743 9 18336828701295628814

> <PUBCHEM_SHAPE_MULTIPOLES>
469
14.86
3.73
1.33
2.03
0.99
-0.02
-13.32
2.46
-1.38
0.78
2.01
-0.44
0.31

> <PUBCHEM_SHAPE_SELFOVERLAP>
1028.054

> <PUBCHEM_SHAPE_VOLUME>
255.5

> <PUBCHEM_COORDINATE_TYPE>
2
5
10

$$$$
25009896
  -OEChem-05102415113D

 49 52  0     1  0  0  0  0  0999 V2000
   -6.6692   -2.2169    1.2787 O   0  0  0  0  0  0  0  0  0  0  0  0
   -0.6769    1.8592   -0.1849 N   0  0  2  0  0  0  0  0  0  0  0  0
    2.3305    0.4533    1.0820 N   0  0  0  0  0  0  0  0  0  0  0  0
    7.3160   -1.4294   -0.1995 N   0  0  0  0  0  0  0  0  0  0  0  0
    7.2991   -1.5097   -1.5404 N   0  0  0  0  0  0  0  0  0  0  0  0
   -6.3246   -1.0509   -0.7413 N   0  0  0  0  0  0  0  0  0  0  0  0
    1.3620    0.7380    0.0500 C   0  0  2  0  0  0  0  0  0  0  0  0
    1.6089    2.1079   -0.5854 C   0  0  0  0  0  0  0  0  0  0  0  0
   -0.0467    0.8212    0.6325 C   0  0  0  0  0  0  0  0  0  0  0  0
    0.3390    2.9037   -0.3132 C   0  0  0  0  0  0  0  0  0  0  0  0
   -1.9122    2.3556    0.4031 C   0  0  0  0  0  0  0  0  0  0  0  0
   -3.0797    1.4546    0.0996 C   0  0  0  0  0  0  0  0  0  0  0  0
    3.6064   -0.0246    0.8289 C   0  0  0  0  0  0  0  0  0  0  0  0
    4.0056   -0.2542   -0.4939 C   0  0  0  0  0  0  0  0  0  0  0  0
    4.4753   -0.2692    1.8939 C   0  0  0  0  0  0  0  0  0  0  0  0
   -3.6681    1.4763   -1.1648 C   0  0  0  0  0  0  0  0  0  0  0  0
   -3.5724    0.5975    1.0836 C   0  0  0  0  0  0  0  0  0  0  0  0
    5.3036   -0.7375   -0.7288 C   0  0  0  0  0  0  0  0  0  0  0  0
    6.1485   -0.9726    0.3500 C   0  0  0  0  0  0  0  0  0  0  0  0
    5.7705   -0.7504    1.6760 C   0  0  0  0  0  0  0  0  0  0  0  0
   -4.7494    0.6408   -1.4452 C   0  0  0  0  0  0  0  0  0  0  0  0
   -4.6539   -0.2378    0.8033 C   0  0  0  0  0  0  0  0  0  0  0  0
   -5.2423   -0.2162   -0.4612 C   0  0  0  0  0  0  0  0  0  0  0  0
    6.0732   -1.0881   -1.8587 C   0  0  0  0  0  0  0  0  0  0  0  0
   -6.9518   -1.9698    0.1109 C   0  0  0  0  0  0  0  0  0  0  0  0
   -8.0911   -2.6808   -0.5751 C   0  0  0  0  0  0  0  0  0  0  0  0
    1.3465   -0.0437   -0.7203 H   0  0  0  0  0  0  0  0  0  0  0  0
    2.4906    2.6275   -0.1950 H   0  0  0  0  0  0  0  0  0  0  0  0
    1.7472    1.9864   -1.6670 H   0  0  0  0  0  0  0  0  0  0  0  0
   -0.0260    1.0994    1.6947 H   0  0  0  0  0  0  0  0  0  0  0  0
   -0.5635   -0.1408    0.5447 H   0  0  0  0  0  0  0  0  0  0  0  0
    0.4502    3.4761    0.6168 H   0  0  0  0  0  0  0  0  0  0  0  0
    0.1180    3.5988   -1.1292 H   0  0  0  0  0  0  0  0  0  0  0  0
   -1.8184    2.5296    1.4836 H   0  0  0  0  0  0  0  0  0  0  0  0
   -2.1575    3.3394   -0.0221 H   0  0  0  0  0  0  0  0  0  0  0  0
    2.1024    0.6873    2.0422 H   0  0  0  0  0  0  0  0  0  0  0  0
    3.3697   -0.0710   -1.3515 H   0  0  0  0  0  0  0  0  0  0  0  0
    4.1540   -0.0870    2.9175 H   0  0  0  0  0  0  0  0  0  0  0  0
   -3.2933    2.1396   -1.9399 H   0  0  0  0  0  0  0  0  0  0  0  0
   -3.1209    0.5705    2.0719 H   0  0  0  0  0  0  0  0  0  0  0  0
    6.4468   -0.9410    2.5018 H   0  0  0  0  0  0  0  0  0  0  0  0
   -5.1983    0.6683   -2.4348 H   0  0  0  0  0  0  0  0  0  0  0  0
   -4.9788   -0.8734    1.6150 H   0  0  0  0  0  0  0  0  0  0  0  0
    5.7898   -1.0532   -2.9013 H   0  0  0  0  0  0  0  0  0  0  0  0
    8.1617   -1.7032    0.2850 H   0  0  0  0  0  0  0  0  0  0  0  0
   -6.6978   -0.9759   -1.6854 H   0  0  0  0  0  0  0  0  0  0  0  0
   -8.5398   -3.4073    0.1081 H   0  0  0  0  0  0  0  0  0  0  0  0
   -8.8532   -1.9554   -0.8734 H   0  0  0  0  0  0  0  0  0  0  0  0
   -7.7214   -3.2075   -1.4594 H   0  0  0  0  0  0  0  0  0  0  0  0
  1 25  2  0  0  0  0
  2  9  1  0  0  0  0
  2 10  1  0  0  0  0
  2 11  1  0  0  0  0
  3  7  1  0  0  0  0
  3 13  1  0  0  0  0
  3 36  1  0  0  0  0
  4  5  1  0  0  0  0
  4 19  1  0  0  0  0
  4 45  1  0  0  0  0
  5 24  2  0  0  0  0
  6 23  1  0  0  0  0
  6 25  1  0  0  0  0
  6 46  1  0  0  0  0
  7  8  1  0  0  0  0
  7  9  1  0  0  0  0
  7 27  1  0  0  0  0
  8 10  1  0  0  0  0
  8 28  1  0  0  0  0
  8 29  1  0  0  0  0
  9 30  1  0  0  0  0
  9 31  1  0  0  0  0
 10 32  1  0  0  0  0
 10 33  1  0  0  0  0
 11 12  1  0  0  0  0
 11 34  1  0  0  0  0
 11 35  1  0  0  0  0
 12 16  2  0  0  0  0
 12 17  1  0  0  0  0
 13 14  2  0  0  0  0
 13 15  1  0  0  0  0
 14 18  1  0  0  0  0
 14 37  1  0  0  0  0
 15 20  2  0  0  0  0
 15 38  1  0  0  0  0
 16 21  1  0  0  0  0
 16 39  1  0  0  0  0
 17 22  2  0  0  0  0
 17 40  1  0  0  0  0
 18 19  2  0  0  0  0
 18 24  1  0  0  0  0
 19 20  1  0  0  0  0
 20 41  1  0  0  0  0
 21 23  2  0  0  0  0
 21 42  1  0  0  0  0
 22 23  1  0  0  0  0
 22 43  1  0  0  0  0
 24 44  1  0  0  0  0
 25 26  1  0  0  0  0
 26 47  1  0  0  0  0
 26 48  1  0  0  0  0
 26 49  1  0  0  0  0
M  END
> <PUBCHEM_COMPOUND_CID>
25009896

> <PUBCHEM_CONFORMER_RMSD>
1

> <PUBCHEM_CONFORMER_DIVERSEORDER>
3
90
242
199
387
207
74
437
412
236
279
49
116
119
47
266
110
408
95
382
86
414
267
179
103
168
19
255
306
152
87
24
48
352
260
8
105
107
180
417
288
228
393
12
503
140
120
88
360
30
81
311
361
190
370
469
142
326
327
155
151
166
42
319
251
445
29
76
479
206
210
35
58
208
148
222
2
454
149
221
247
317
56
176
40
272
284
399
234
75
300
373
5
121
304
16
364
172
68
34
18
270
106
26
425
212
474
182
43
296
283
70
385
115
96
4
318
256
17
7
197
305
459
123
14
1
224
271
294
315
227
28
77
175
388
301
67
192
381
100
52
62
191
20

> <PUBCHEM_MMFF94_PARTIAL_CHARGES>
35
1 -0.57
10 0.27
11 0.41
12 -0.14
13 0.1
14 -0.15
15 -0.15
16 -0.15
17 -0.15
19 -0.15
2 -0.81
20 -0.15
21 -0.15
22 -0.15
23 0.12
24 0.14
25 0.57
26 0.06
3 -0.87
36 0.4
37 0.15
38 0.15
39 0.15
4 0.3
40 0.15
41 0.15
42 0.15
43 0.15
44 0.15
45 0.27
46 0.37
5 -0.71
6 -0.55
7 0.37
9 0.27

> <PUBCHEM_EFFECTIVE_ROTOR_COUNT>
7

> <PUBCHEM_PHARMACOPHORE_FEATURES>
11
1 1 acceptor
1 2 cation
1 3 cation
1 3 donor
1 4 donor
1 5 acceptor
1 6 donor
5 2 7 8 9 10 rings
5 4 5 18 19 24 rings
6 12 16 17 21 22 23 rings
6 13 14 15 18 19 20 rings

> <PUBCHEM_HEAVY_ATOM_COUNT>
26

> <PUBCHEM_ATOM_DEF_STEREO_COUNT>
0

> <PUBCHEM_ATOM_UDEF_STEREO_COUNT>
1

> <PUBCHEM_BOND_DEF_STEREO_COUNT>
0

> <PUBCHEM_BOND_UDEF_STEREO_COUNT>
0

> <PUBCHEM_ISOTOPIC_ATOM_COUNT>
0

> <PUBCHEM_COMPONENT_COUNT>
1

> <PUBCHEM_CACTVS_TAUTO_COUNT>
4

> <PUBCHEM_CONFORMER_ID>
017D9EE800000003

> <PUBCHEM_MMFF94_ENERGY>
73.9788

> <PUBCHEM_FEATURE_SELFOVERLAP>
55.913

> <PUBCHEM_SHAPE_FINGERPRINT>
10 15 13686300210061183003
10669705 251 18131075978078533071
10740516 88 17988097611937474726
10883706 89 14260531053371403572
10981352 41 18201432636048588831
11408170 108 17703792531811166671
11408170 132 17240754082675832037
12596602 18 15841541964582626738
12778500 126 9871469782478097108
12895836 83 11530477844638943065
1361 4 18049440641656823039
13668630 136 18411980265098035791
13673619 4 18131632283257980993
13685833 64 18272932734456542865
13690498 29 17967529069754722485
13782708 43 17987797381323105326
13947930 73 18265902535099307327
14117953 113 18410284840476772535
14123256 34 18410857676800810947
14556957 393 16805897186028456140
14767858 380 17458348515985769504
14849402 71 15266759123358873202
14931854 50 17603578630453971787
15183329 4 15864069849633915668
15510800 12 18411707616707003455
16992779 147 15337688665532281410
16992828 155 15576952054959733781
18222031 100 18335698313359257224
18335252 98 18131349726946153816
18643901 69 18260267452481324079
19302320 297 12463568521288974195
19438510 23 10231765496040084333
19841028 212 18265331888817211899
20028762 73 18342175587460392655
2026 5 18341608235994032183
20281389 69 8646766707388933085
21150785 3 17240485810053652198
21196832 93 17604723303230394171
21267235 1 18409731781442091313
21307412 95 17896035611630315667
21315759 148 17703224019241632512
21344244 246 18115878554345429788
21585481 104 15213561357772726639
21585483 132 17679290876826817074
21623969 137 16773795853914238924
21756936 100 9295279539530723425
21781055 127 11312056574600458422
2303208 19 17703786960726509580
23081809 10 17096085784274236880
23522609 53 18118999968381698260
23559900 14 17531808090750690625
255183 451 18335139838693323493
270888 7 8862952671458779757
2747138 104 18273213097142303648
2748736 6 9943804482656543819
3004659 81 18113335323234693933
3383291 50 18341891926725441779
3411729 13 11023836071402946980
3627633 1 18339924810144972697
3663271 9 14620501355026934238
3862424 121 16952831694740423203
406291 66 18341047501837163679
44249763 50 11963679961913549539
5104073 3 13613648841247675916
54039377 194 18411423925125813127
54076057 127 17632012048925707904
5470011 282 17022906769816747663
563151 248 16702299083446732151
5718773 13 18339640144365211303
58083652 198 15554149407405908337
5937810 71 13551458243436781567
59682541 52 14490458773256817104
636775 8 18341058449755995022
6712543 237 15984827077689042455
999808 66 17989207036217088503

> <PUBCHEM_SHAPE_MULTIPOLES>
504.29
23.54
2.62
1.52
4.58
0.43
-0.03
-23.85
3.59
3.68
0.35
-1.68
-0.37
1.06

> <PUBCHEM_SHAPE_SELFOVERLAP>
1095.487

> <PUBCHEM_SHAPE_VOLUME>
278.5

> <PUBCHEM_COORDINATE_TYPE>
2
5
10

$$$$
25009892
  -OEChem-05102415113D

 60 63  0     1  0  0  0  0  0999 V2000
    5.6528   -0.9398   -0.6692 O   0  0  0  0  0  0  0  0  0  0  0  0
   -0.6265   -1.6701   -0.1459 N   0  0  1  0  0  0  0  0  0  0  0  0
   -4.1149   -1.2750    0.3895 N   0  0  0  0  0  0  0  0  0  0  0  0
   -8.3950    2.1237   -0.0304 N   0  0  0  0  0  0  0  0  0  0  0  0
   -7.9270    3.1479   -0.7630 N   0  0  0  0  0  0  0  0  0  0  0  0
    8.8054    2.6830   -0.0044 N   0  0  0  0  0  0  0  0  0  0  0  0
   -2.8512   -0.9504   -0.2287 C   0  0  1  0  0  0  0  0  0  0  0  0
   -2.0375    0.0146    0.6362 C   0  0  0  0  0  0  0  0  0  0  0  0
   -1.9759   -2.1942   -0.3637 C   0  0  0  0  0  0  0  0  0  0  0  0
   -0.7610   -0.7429    0.9773 C   0  0  0  0  0  0  0  0  0  0  0  0
    0.3429   -2.7235    0.1169 C   0  0  0  0  0  0  0  0  0  0  0  0
    1.7567   -2.2495   -0.0916 C   0  0  0  0  0  0  0  0  0  0  0  0
   -5.2359   -0.4621    0.3236 C   0  0  0  0  0  0  0  0  0  0  0  0
   -5.1671    0.7496   -0.3756 C   0  0  0  0  0  0  0  0  0  0  0  0
    2.5634   -1.9550    1.0076 C   0  0  0  0  0  0  0  0  0  0  0  0
    2.2589   -2.1033   -1.3846 C   0  0  0  0  0  0  0  0  0  0  0  0
   -6.4161   -0.8620    0.9529 C   0  0  0  0  0  0  0  0  0  0  0  0
   -6.3145    1.5581   -0.4314 C   0  0  0  0  0  0  0  0  0  0  0  0
   -7.5667   -0.0680    0.9062 C   0  0  0  0  0  0  0  0  0  0  0  0
   -7.4769    1.1359    0.2041 C   0  0  0  0  0  0  0  0  0  0  0  0
    3.8725   -1.5144    0.8136 C   0  0  0  0  0  0  0  0  0  0  0  0
    3.5680   -1.6625   -1.5784 C   0  0  0  0  0  0  0  0  0  0  0  0
    4.3748   -1.3681   -0.4793 C   0  0  0  0  0  0  0  0  0  0  0  0
   -6.6610    2.8004   -1.0049 C   0  0  0  0  0  0  0  0  0  0  0  0
    6.1978   -0.0653    0.3177 C   0  0  0  0  0  0  0  0  0  0  0  0
    7.2278    0.8411   -0.3425 C   0  0  0  0  0  0  0  0  0  0  0  0
    7.8400    1.8152    0.6590 C   0  0  0  0  0  0  0  0  0  0  0  0
   10.0942    2.0039   -0.1505 C   0  0  0  0  0  0  0  0  0  0  0  0
    8.9720    3.9329    0.7395 C   0  0  0  0  0  0  0  0  0  0  0  0
   -2.9854   -0.5397   -1.2376 H   0  0  0  0  0  0  0  0  0  0  0  0
   -1.7938    0.9092    0.0496 H   0  0  0  0  0  0  0  0  0  0  0  0
   -2.5553    0.3441    1.5435 H   0  0  0  0  0  0  0  0  0  0  0  0
   -2.0778   -2.6473   -1.3558 H   0  0  0  0  0  0  0  0  0  0  0  0
   -2.2331   -2.9552    0.3853 H   0  0  0  0  0  0  0  0  0  0  0  0
   -0.8893   -1.2696    1.9318 H   0  0  0  0  0  0  0  0  0  0  0  0
    0.0896   -0.0598    1.0647 H   0  0  0  0  0  0  0  0  0  0  0  0
    0.1836   -3.5579   -0.5809 H   0  0  0  0  0  0  0  0  0  0  0  0
    0.2184   -3.1601    1.1172 H   0  0  0  0  0  0  0  0  0  0  0  0
   -4.1729   -2.1018    0.9742 H   0  0  0  0  0  0  0  0  0  0  0  0
   -4.2717    1.1047   -0.8712 H   0  0  0  0  0  0  0  0  0  0  0  0
    2.1851   -2.0688    2.0200 H   0  0  0  0  0  0  0  0  0  0  0  0
    1.6402   -2.3292   -2.2491 H   0  0  0  0  0  0  0  0  0  0  0  0
   -6.4575   -1.8059    1.4929 H   0  0  0  0  0  0  0  0  0  0  0  0
   -8.4843   -0.3770    1.3942 H   0  0  0  0  0  0  0  0  0  0  0  0
    4.4755   -1.3224    1.6962 H   0  0  0  0  0  0  0  0  0  0  0  0
    3.9540   -1.5505   -2.5880 H   0  0  0  0  0  0  0  0  0  0  0  0
   -6.0416    3.4661   -1.5893 H   0  0  0  0  0  0  0  0  0  0  0  0
   -9.3576    2.1596    0.2810 H   0  0  0  0  0  0  0  0  0  0  0  0
    6.6719   -0.6652    1.1032 H   0  0  0  0  0  0  0  0  0  0  0  0
    5.4223    0.5722    0.7618 H   0  0  0  0  0  0  0  0  0  0  0  0
    7.9924    0.2093   -0.8095 H   0  0  0  0  0  0  0  0  0  0  0  0
    6.7505    1.3888   -1.1659 H   0  0  0  0  0  0  0  0  0  0  0  0
    7.0156    2.4156    1.0668 H   0  0  0  0  0  0  0  0  0  0  0  0
    8.2842    1.2827    1.5100 H   0  0  0  0  0  0  0  0  0  0  0  0
   10.0095    1.1036   -0.7669 H   0  0  0  0  0  0  0  0  0  0  0  0
   10.5268    1.7217    0.8165 H   0  0  0  0  0  0  0  0  0  0  0  0
   10.8103    2.6558   -0.6641 H   0  0  0  0  0  0  0  0  0  0  0  0
    9.3318    3.7606    1.7604 H   0  0  0  0  0  0  0  0  0  0  0  0
    9.6829    4.5928    0.2296 H   0  0  0  0  0  0  0  0  0  0  0  0
    8.0243    4.4803    0.7934 H   0  0  0  0  0  0  0  0  0  0  0  0
  1 23  1  0  0  0  0
  1 25  1  0  0  0  0
  2  9  1  0  0  0  0
  2 10  1  0  0  0  0
  2 11  1  0  0  0  0
  3  7  1  0  0  0  0
  3 13  1  0  0  0  0
  3 39  1  0  0  0  0
  4  5  1  0  0  0  0
  4 20  1  0  0  0  0
  4 48  1  0  0  0  0
  5 24  2  0  0  0  0
  6 27  1  0  0  0  0
  6 28  1  0  0  0  0
  6 29  1  0  0  0  0
  7  8  1  0  0  0  0
  7  9  1  0  0  0  0
  7 30  1  0  0  0  0
  8 10  1  0  0  0  0
  8 31  1  0  0  0  0
  8 32  1  0  0  0  0
  9 33  1  0  0  0  0
  9 34  1  0  0  0  0
 10 35  1  0  0  0  0
 10 36  1  0  0  0  0
 11 12  1  0  0  0  0
 11 37  1  0  0  0  0
 11 38  1  0  0  0  0
 12 15  2  0  0  0  0
 12 16  1  0  0  0  0
 13 14  2  0  0  0  0
 13 17  1  0  0  0  0
 14 18  1  0  0  0  0
 14 40  1  0  0  0  0
 15 21  1  0  0  0  0
 15 41  1  0  0  0  0
 16 22  2  0  0  0  0
 16 42  1  0  0  0  0
 17 19  2  0  0  0  0
 17 43  1  0  0  0  0
 18 20  2  0  0  0  0
 18 24  1  0  0  0  0
 19 20  1  0  0  0  0
 19 44  1  0  0  0  0
 21 23  2  0  0  0  0
 21 45  1  0  0  0  0
 22 23  1  0  0  0  0
 22 46  1  0  0  0  0
 24 47  1  0  0  0  0
 25 26  1  0  0  0  0
 25 49  1  0  0  0  0
 25 50  1  0  0  0  0
 26 27  1  0  0  0  0
 26 51  1  0  0  0  0
 26 52  1  0  0  0  0
 27 53  1  0  0  0  0
 27 54  1  0  0  0  0
 28 55  1  0  0  0  0
 28 56  1  0  0  0  0
 28 57  1  0  0  0  0
 29 58  1  0  0  0  0
 29 59  1  0  0  0  0
 29 60  1  0  0  0  0
M  END
> <PUBCHEM_COMPOUND_CID>
25009892

> <PUBCHEM_CONFORMER_RMSD>
1

> <PUBCHEM_CONFORMER_DIVERSEORDER>
2
124
151
128
6
237
95
288
297
216
275
21
274
252
16
228
63
5
262
295
163
67
258
131
77
199
11
79
204
324
270
229
83
271
269
265
134
305
212
248
176
113
110
41
30
133
47
197
255
328
64
81
224
146
89
85
177
174
227
132
218
178
7
84
315
37
277
279
127
114
17
272
15
72
61
226
126
266
302
260
268
318
193
104
223
243
98
76
50
301
181
225
75
136
241
205
283
52
172
261
161
145
9
235
334
55
273
115
138
300
44
220
175
284
142
244
106
200
317
23
311
296
141
221
82
92
100
240
105
253
97
333
281
36
215
112
263
214
1
153
171
276
150
201
191
96
202
327
147
337
196
48
156
254
249
185
339
8
68
211
207
152
285
195
219
27
242
282
78
182
198
259
143
332
28
335
51
148
307
87
340
159
73
35
209
264
322
310
31
66
236
299
251
341
140
309
13
245
108
213
111
86
14
34
316
57
303
234
232
121
298
109
222
189
323
162
210
10
93
169
19
314
18
90
230
3
118
250
206
246
32
43
292
165
180
116
336
319
157
326
24
58
188
40
135
321
54
122
278
158
26
69
330
233
289
12
4
144
139
247
338
170
117
312
287
25
91
267
179
186
60
80
74
155
183
286
325
53
160
167
59
190
168
308
173
45
125
331
129
56
294
306
38
290
20
130
137
194
208
102
123
304
29
65
164
42
166
291
119
70
280
22
192
257
62
154
293
320
256
313
184
46
120
49
71
231
33
101
39
239
238
99
149
217
203
107
88
329
187
94
103

> <PUBCHEM_MMFF94_PARTIAL_CHARGES>
36
1 -0.36
10 0.27
11 0.41
12 -0.14
13 0.1
14 -0.15
15 -0.15
16 -0.15
17 -0.15
19 -0.15
2 -0.81
20 -0.15
21 -0.15
22 -0.15
23 0.08
24 0.14
25 0.28
27 0.27
28 0.27
29 0.27
3 -0.87
39 0.4
4 0.3
40 0.15
41 0.15
42 0.15
43 0.15
44 0.15
45 0.15
46 0.15
47 0.15
48 0.27
5 -0.71
6 -0.81
7 0.37
9 0.27

> <PUBCHEM_EFFECTIVE_ROTOR_COUNT>
10

> <PUBCHEM_PHARMACOPHORE_FEATURES>
11
1 1 acceptor
1 2 cation
1 3 cation
1 3 donor
1 4 donor
1 5 acceptor
1 6 cation
5 2 7 8 9 10 rings
5 4 5 18 20 24 rings
6 12 15 16 21 22 23 rings
6 13 14 17 18 19 20 rings

> <PUBCHEM_HEAVY_ATOM_COUNT>
29

> <PUBCHEM_ATOM_DEF_STEREO_COUNT>
0

> <PUBCHEM_ATOM_UDEF_STEREO_COUNT>
1

> <PUBCHEM_BOND_DEF_STEREO_COUNT>
0

> <PUBCHEM_BOND_UDEF_STEREO_COUNT>
0

> <PUBCHEM_ISOTOPIC_ATOM_COUNT>
0

> <PUBCHEM_COMPONENT_COUNT>
1

> <PUBCHEM_CACTVS_TAUTO_COUNT>
2

> <PUBCHEM_CONFORMER_ID>
017D9EE400000002

> <PUBCHEM_MMFF94_ENERGY>
82.0278

> <PUBCHEM_FEATURE_SELFOVERLAP>
55.913

> <PUBCHEM_SHAPE_FINGERPRINT>
10280341 67 18200864189239078016
11409948 41 15984279427041794868
11456790 92 14345794941958632468
11578821 258 18342459235727842489
11607047 141 18041836191975357530
11607047 74 10375282554645599306
12539765 74 18341896290765668750
12592606 108 9871751291123351560
12758862 56 8934722150163253238
13165053 182 18058173813535499921
13165054 27 18339353197643085556
13668630 136 11095878250934767187
13782708 43 9150296837376001479
14598715 104 18335412436061887745
15152005 77 11025786618073708288
15183329 4 15267051494688991223
15350500 55 18410572903463361836
15604295 49 18410011052489454965
1577012 14 18412539947130536206
15840311 113 18334014978743208758
16994733 274 18186520994674811705
1768 4 18342466954189339595
17686467 74 18041282154083771219
17899979 19 18413112774812504136
20505436 4 18410569605008742954
20721686 146 18341897446480474308
21033648 29 18040716974562658534
21095123 293 18261115231733987236
21130935 74 17822294522939417395
21298829 104 18408885157336067540
21585482 111 18410292519593499892
23524908 199 17703803505736677918
23559900 14 11742110709356914531
23569943 247 9942437794710511652
23576562 1 15553866923106510416
24771293 8 18333730247189349022
25269216 80 17346023580898236663
3383291 50 11241967079668118504
3711267 37 18340780290056595984
3918712 181 18410290272523757360
4073 2 17822303336502303075
4169191 19 18202568367304481369
465052 167 8934701311087668083
5372103 7 18272934942871774724
54039377 194 8862949381724723992
5718773 13 8935005875934701114
6289498 60 18335697243844004880
6327066 14 18271807956348963734
636775 72 18407760331197597749

> <PUBCHEM_SHAPE_MULTIPOLES>
566.03
33.37
3.9
1.08
26.97
2.82
-0.12
43.06
1.28
4.04
-0.39
0.09
-0.22
3.08

> <PUBCHEM_SHAPE_SELFOVERLAP>
1204.596

> <PUBCHEM_SHAPE_VOLUME>
319.9

> <PUBCHEM_COORDINATE_TYPE>
2
5
10

$$$$
25008330
  -OEChem-05102415113D

 49 52  0     1  0  0  0  0  0999 V2000
   -3.1357   -4.3756   -0.2161 S   0  0  0  0  0  0  0  0  0  0  0  0
   -1.9642    2.2817   -0.0960 N   0  0  2  0  0  0  0  0  0  0  0  0
    1.7481    2.4970    0.3079 N   0  0  0  0  0  0  0  0  0  0  0  0
    4.3616   -2.3079   -0.0029 N   0  0  0  0  0  0  0  0  0  0  0  0
    3.5462   -3.0748   -0.7457 N   0  0  0  0  0  0  0  0  0  0  0  0
    0.4685    2.6827   -0.3446 C   0  0  2  0  0  0  0  0  0  0  0  0
    0.2139    4.1749   -0.5604 C   0  0  0  0  0  0  0  0  0  0  0  0
   -0.6427    2.0553    0.5076 C   0  0  0  0  0  0  0  0  0  0  0  0
   -1.1910    4.4019   -1.1075 C   0  0  0  0  0  0  0  0  0  0  0  0
   -2.2446    3.7171   -0.2361 C   0  0  0  0  0  0  0  0  0  0  0  0
   -3.0075    1.6317    0.6969 C   0  0  0  0  0  0  0  0  0  0  0  0
    2.4606    1.3119    0.2706 C   0  0  0  0  0  0  0  0  0  0  0  0
   -3.0391    0.1436    0.4703 C   0  0  0  0  0  0  0  0  0  0  0  0
    1.9383    0.2166   -0.4289 C   0  0  0  0  0  0  0  0  0  0  0  0
    3.6889    1.2245    0.9282 C   0  0  0  0  0  0  0  0  0  0  0  0
   -3.5994   -0.3727   -0.6981 C   0  0  0  0  0  0  0  0  0  0  0  0
   -2.5077   -0.7189    1.4292 C   0  0  0  0  0  0  0  0  0  0  0  0
    2.6784   -0.9772   -0.4557 C   0  0  0  0  0  0  0  0  0  0  0  0
    3.8988   -1.0371    0.2080 C   0  0  0  0  0  0  0  0  0  0  0  0
    4.4373    0.0429    0.9108 C   0  0  0  0  0  0  0  0  0  0  0  0
   -3.6285   -1.7514   -0.9075 C   0  0  0  0  0  0  0  0  0  0  0  0
   -2.5368   -2.0976    1.2198 C   0  0  0  0  0  0  0  0  0  0  0  0
   -3.0972   -2.6138    0.0515 C   0  0  0  0  0  0  0  0  0  0  0  0
    2.5233   -2.2619   -1.0191 C   0  0  0  0  0  0  0  0  0  0  0  0
   -1.3696   -4.7927   -0.1820 C   0  0  0  0  0  0  0  0  0  0  0  0
    0.4745    2.2339   -1.3467 H   0  0  0  0  0  0  0  0  0  0  0  0
    0.3249    4.7198    0.3865 H   0  0  0  0  0  0  0  0  0  0  0  0
    0.9569    4.5938   -1.2498 H   0  0  0  0  0  0  0  0  0  0  0  0
   -0.4561    0.9833    0.6118 H   0  0  0  0  0  0  0  0  0  0  0  0
   -0.6082    2.4724    1.5245 H   0  0  0  0  0  0  0  0  0  0  0  0
   -1.3970    5.4768   -1.1610 H   0  0  0  0  0  0  0  0  0  0  0  0
   -1.2519    4.0138   -2.1322 H   0  0  0  0  0  0  0  0  0  0  0  0
   -2.2852    4.2046    0.7469 H   0  0  0  0  0  0  0  0  0  0  0  0
   -3.2216    3.8623   -0.7132 H   0  0  0  0  0  0  0  0  0  0  0  0
   -2.9117    1.8657    1.7661 H   0  0  0  0  0  0  0  0  0  0  0  0
   -3.9983    2.0109    0.4086 H   0  0  0  0  0  0  0  0  0  0  0  0
    2.1106    3.2482    0.8850 H   0  0  0  0  0  0  0  0  0  0  0  0
    0.9962    0.2324   -0.9625 H   0  0  0  0  0  0  0  0  0  0  0  0
    4.0848    2.0824    1.4682 H   0  0  0  0  0  0  0  0  0  0  0  0
   -4.0161    0.2891   -1.4527 H   0  0  0  0  0  0  0  0  0  0  0  0
   -2.0694   -0.3300    2.3445 H   0  0  0  0  0  0  0  0  0  0  0  0
    5.3915   -0.0270    1.4210 H   0  0  0  0  0  0  0  0  0  0  0  0
   -4.0691   -2.1353   -1.8243 H   0  0  0  0  0  0  0  0  0  0  0  0
   -2.1230   -2.7506    1.9841 H   0  0  0  0  0  0  0  0  0  0  0  0
    1.7053   -2.6385   -1.6170 H   0  0  0  0  0  0  0  0  0  0  0  0
    5.2261   -2.7146    0.3322 H   0  0  0  0  0  0  0  0  0  0  0  0
   -0.8232   -4.1952   -0.9170 H   0  0  0  0  0  0  0  0  0  0  0  0
   -0.9494   -4.6193    0.8119 H   0  0  0  0  0  0  0  0  0  0  0  0
   -1.2467   -5.8502   -0.4304 H   0  0  0  0  0  0  0  0  0  0  0  0
  1 23  1  0  0  0  0
  1 25  1  0  0  0  0
  2  8  1  0  0  0  0
  2 10  1  0  0  0  0
  2 11  1  0  0  0  0
  3  6  1  0  0  0  0
  3 12  1  0  0  0  0
  3 37  1  0  0  0  0
  4  5  1  0  0  0  0
  4 19  1  0  0  0  0
  4 46  1  0  0  0  0
  5 24  2  0  0  0  0
  6  7  1  0  0  0  0
  6  8  1  0  0  0  0
  6 26  1  0  0  0  0
  7  9  1  0  0  0  0
  7 27  1  0  0  0  0
  7 28  1  0  0  0  0
  8 29  1  0  0  0  0
  8 30  1  0  0  0  0
  9 10  1  0  0  0  0
  9 31  1  0  0  0  0
  9 32  1  0  0  0  0
 10 33  1  0  0  0  0
 10 34  1  0  0  0  0
 11 13  1  0  0  0  0
 11 35  1  0  0  0  0
 11 36  1  0  0  0  0
 12 14  2  0  0  0  0
 12 15  1  0  0  0  0
 13 16  2  0  0  0  0
 13 17  1  0  0  0  0
 14 18  1  0  0  0  0
 14 38  1  0  0  0  0
 15 20  2  0  0  0  0
 15 39  1  0  0  0  0
 16 21  1  0  0  0  0
 16 40  1  0  0  0  0
 17 22  2  0  0  0  0
 17 41  1  0  0  0  0
 18 19  2  0  0  0  0
 18 24  1  0  0  0  0
 19 20  1  0  0  0  0
 20 42  1  0  0  0  0
 21 23  2  0  0  0  0
 21 43  1  0  0  0  0
 22 23  1  0  0  0  0
 22 44  1  0  0  0  0
 24 45  1  0  0  0  0
 25 47  1  0  0  0  0
 25 48  1  0  0  0  0
 25 49  1  0  0  0  0
M  END
> <PUBCHEM_COMPOUND_CID>
25008330

> <PUBCHEM_CONFORMER_RMSD>
0.8

> <PUBCHEM_CONFORMER_DIVERSEORDER>
1
8
51
131
204
275
146
109
193
65
290
170
251
82
301
79
76
24
243
134
227
54
103
194
102
163
115
195
149
307
206
274
264
119
45
96
174
175
41
40
107
71
166
33
75
185
108
151
91
100
181
132
254
255
281
179
39
90
152
188
215
239
296
203
26
308
213
253
278
173
21
210
38
196
228
224
139
295
56
124
162
242
220
29
110
187
143
101
219
68
289
93
43
250
145
237
214
97
248
223
231
121
209
283
292
236
192
282
15
28
87
138
184
222
211
73
221
44
191
111
42
261
61
114
259
235
116
182
207
232
302
46
167
144
294
13
55
190
260
83
112
157
164
159
129
256
183
298
84
58
267
27
285
197
169
168
269
268
5
23
265
288
10
201
48
98
305
78
57
205
247
257
118
276
136
80
11
189
20
270
50
77
287
52
303
234
297
62
137
25
106
6
262
178
202
304
104
128
64
63
60
30
230
19
12
155
32
291
49
156
309
245
161
238
212
141
226
263
99
246
81
186
94
249
233
286
105
122
125
266
171
3
86
216
142
120
88
199
2
160
271
165
133
72
85
225
280
130
299
95
241
158
154
148
59
244
7
69
53
279
74
67
153
177
252
36
180
66
240
217
18
17
273
135
22
117
150
35
200
306
16
272
4
126
37
229
14
218
284
92
300
123
47
113
208
9
89
277
198
258
34
147
140
172
31
176
70
127
293

> <PUBCHEM_MMFF94_PARTIAL_CHARGES>
32
1 -0.33
10 0.27
11 0.41
12 0.1
13 -0.14
14 -0.15
15 -0.15
16 -0.15
17 -0.15
19 -0.15
2 -0.81
20 -0.15
21 -0.15
22 -0.15
23 0.1
24 0.14
25 0.23
3 -0.87
37 0.4
38 0.15
39 0.15
4 0.3
40 0.15
41 0.15
42 0.15
43 0.15
44 0.15
45 0.15
46 0.27
5 -0.71
6 0.37
8 0.27

> <PUBCHEM_EFFECTIVE_ROTOR_COUNT>
6.2

> <PUBCHEM_PHARMACOPHORE_FEATURES>
10
1 2 cation
1 25 hydrophobe
1 3 cation
1 3 donor
1 4 donor
1 5 acceptor
5 4 5 18 19 24 rings
6 12 14 15 18 19 20 rings
6 13 16 17 21 22 23 rings
6 2 6 7 8 9 10 rings

> <PUBCHEM_HEAVY_ATOM_COUNT>
25

> <PUBCHEM_ATOM_DEF_STEREO_COUNT>
0

> <PUBCHEM_ATOM_UDEF_STEREO_COUNT>
1

> <PUBCHEM_BOND_DEF_STEREO_COUNT>
0

> <PUBCHEM_BOND_UDEF_STEREO_COUNT>
0

> <PUBCHEM_ISOTOPIC_ATOM_COUNT>
0

> <PUBCHEM_COMPONENT_COUNT>
1

> <PUBCHEM_CACTVS_TAUTO_COUNT>
2

> <PUBCHEM_CONFORMER_ID>
017D98CA00000001

> <PUBCHEM_MMFF94_ENERGY>
61.6512

> <PUBCHEM_FEATURE_SELFOVERLAP>
50.837

> <PUBCHEM_SHAPE_FINGERPRINT>
10764073 3 17825137912027403931
107951 10 16811258259039864865
10940486 97 18045515127473609820
1100329 8 14881164320597186624
11014199 57 18339084916008789519
11552529 35 17988640778964951152
12038231 1 18411984619936924231
12422481 6 18125189081612609081
12553582 1 18264787599663053049
13122387 1 16753540379354795559
13402501 40 18053106112047734148
138480 1 15744160044929084773
14117953 113 18269840964084877207
14251757 5 18050029717526989446
14659021 117 18337378354014503578
14725015 67 18267300924663123191
16719943 64 17615974309465259418
19141452 34 18341334396978296953
19930381 70 17833831947298842667
20775530 9 18340772632002631043
21133410 52 17404849845539179870
21133410 62 15672079026156720278
22113638 7 17765426930540051718
23559900 14 17978781634740410857
3027735 51 18051404072880818581
3298306 158 17255401514187079477
463206 1 17976540842712140779
469060 322 17554284315571223436
5265222 85 17688053932674837716
5309563 4 17979076312235904555
550186 72 18335701680904462980
56633871 153 18340217366405293379
613672 6 18266442377605845055
9709674 26 18339920394864987240

> <PUBCHEM_SHAPE_MULTIPOLES>
498.41
8.45
6.96
1.08
1.05
1.82
0.11
-8.12
0.92
-1.51
-2.14
-0.21
0
0.17

> <PUBCHEM_SHAPE_SELFOVERLAP>
1060.841

> <PUBCHEM_SHAPE_VOLUME>
280.2

> <PUBCHEM_COORDINATE_TYPE>
2
5
10

$$$$
57446028
  -OEChem-05102415113D

 55 59  0     1  0  0  0  0  0999 V2000
   -1.5604   -3.0381   -0.1391 N   0  0  2  0  0  0  0  0  0  0  0  0
   -3.9974   -0.2273    0.2486 N   0  0  0  0  0  0  0  0  0  0  0  0
   -1.7561    4.7697    0.1072 N   0  0  0  0  0  0  0  0  0  0  0  0
   -0.6305    4.6016   -0.6066 N   0  0  0  0  0  0  0  0  0  0  0  0
   -3.3484   -1.3437   -0.4072 C   0  0  2  0  0  0  0  0  0  0  0  0
   -4.3722   -2.4473   -0.6758 C   0  0  0  0  0  0  0  0  0  0  0  0
   -2.2009   -1.8629    0.4693 C   0  0  0  0  0  0  0  0  0  0  0  0
   -3.6831   -3.6903   -1.2277 C   0  0  0  0  0  0  0  0  0  0  0  0
   -2.5256   -4.1293   -0.3300 C   0  0  0  0  0  0  0  0  0  0  0  0
   -0.4344   -3.4885    0.6788 C   0  0  0  0  0  0  0  0  0  0  0  0
    0.7729   -2.6058    0.5056 C   0  0  0  0  0  0  0  0  0  0  0  0
   -3.4879    1.0586    0.2525 C   0  0  0  0  0  0  0  0  0  0  0  0
   -2.2803    1.3218   -0.4065 C   0  0  0  0  0  0  0  0  0  0  0  0
    1.5573   -2.7143   -0.6428 C   0  0  0  0  0  0  0  0  0  0  0  0
    1.1067   -1.6792    1.4932 C   0  0  0  0  0  0  0  0  0  0  0  0
   -4.1824    2.0746    0.9116 C   0  0  0  0  0  0  0  0  0  0  0  0
   -1.7796    2.6343   -0.3911 C   0  0  0  0  0  0  0  0  0  0  0  0
   -2.4914    3.6271    0.2728 C   0  0  0  0  0  0  0  0  0  0  0  0
   -3.6968    3.3861    0.9357 C   0  0  0  0  0  0  0  0  0  0  0  0
    2.6755   -1.8960   -0.8034 C   0  0  0  0  0  0  0  0  0  0  0  0
    2.2248   -0.8610    1.3326 C   0  0  0  0  0  0  0  0  0  0  0  0
    3.0092   -0.9693    0.1843 C   0  0  0  0  0  0  0  0  0  0  0  0
   -0.6482    3.3012   -0.9079 C   0  0  0  0  0  0  0  0  0  0  0  0
    4.1694   -0.1211    0.0179 C   0  0  0  0  0  0  0  0  0  0  0  0
    5.4141   -0.5429    0.4853 C   0  0  0  0  0  0  0  0  0  0  0  0
    4.0435    1.1181   -0.6096 C   0  0  0  0  0  0  0  0  0  0  0  0
    6.5330    0.2747    0.3249 C   0  0  0  0  0  0  0  0  0  0  0  0
    5.1621    1.9356   -0.7700 C   0  0  0  0  0  0  0  0  0  0  0  0
    6.4069    1.5138   -0.3027 C   0  0  0  0  0  0  0  0  0  0  0  0
   -2.9660   -1.0467   -1.3927 H   0  0  0  0  0  0  0  0  0  0  0  0
   -5.1354   -2.0974   -1.3814 H   0  0  0  0  0  0  0  0  0  0  0  0
   -4.9004   -2.7087    0.2508 H   0  0  0  0  0  0  0  0  0  0  0  0
   -1.4663   -1.0662    0.6114 H   0  0  0  0  0  0  0  0  0  0  0  0
   -2.5834   -2.1090    1.4706 H   0  0  0  0  0  0  0  0  0  0  0  0
   -3.3074   -3.4826   -2.2377 H   0  0  0  0  0  0  0  0  0  0  0  0
   -4.4099   -4.5054   -1.3190 H   0  0  0  0  0  0  0  0  0  0  0  0
   -2.9172   -4.4772    0.6350 H   0  0  0  0  0  0  0  0  0  0  0  0
   -2.0334   -4.9841   -0.8099 H   0  0  0  0  0  0  0  0  0  0  0  0
   -0.1253   -4.5001    0.3794 H   0  0  0  0  0  0  0  0  0  0  0  0
   -0.7103   -3.5757    1.7387 H   0  0  0  0  0  0  0  0  0  0  0  0
   -4.8317   -0.4065    0.7969 H   0  0  0  0  0  0  0  0  0  0  0  0
   -1.7058    0.5744   -0.9392 H   0  0  0  0  0  0  0  0  0  0  0  0
    1.3073   -3.4323   -1.4195 H   0  0  0  0  0  0  0  0  0  0  0  0
    0.5042   -1.5840    2.3927 H   0  0  0  0  0  0  0  0  0  0  0  0
   -5.1199    1.8581    1.4201 H   0  0  0  0  0  0  0  0  0  0  0  0
   -4.2348    4.1765    1.4470 H   0  0  0  0  0  0  0  0  0  0  0  0
    3.2762   -1.9934   -1.7047 H   0  0  0  0  0  0  0  0  0  0  0  0
    2.4706   -0.1436    2.1121 H   0  0  0  0  0  0  0  0  0  0  0  0
    0.1644    2.8915   -1.4913 H   0  0  0  0  0  0  0  0  0  0  0  0
   -1.9670    5.6965    0.4558 H   0  0  0  0  0  0  0  0  0  0  0  0
    5.5300   -1.5060    0.9768 H   0  0  0  0  0  0  0  0  0  0  0  0
    3.0804    1.4624   -0.9795 H   0  0  0  0  0  0  0  0  0  0  0  0
    7.5023   -0.0536    0.6887 H   0  0  0  0  0  0  0  0  0  0  0  0
    5.0641    2.9007   -1.2586 H   0  0  0  0  0  0  0  0  0  0  0  0
    7.2780    2.1505   -0.4275 H   0  0  0  0  0  0  0  0  0  0  0  0
  1  7  1  0  0  0  0
  1  9  1  0  0  0  0
  1 10  1  0  0  0  0
  2  5  1  0  0  0  0
  2 12  1  0  0  0  0
  2 41  1  0  0  0  0
  3  4  1  0  0  0  0
  3 18  1  0  0  0  0
  3 50  1  0  0  0  0
  4 23  2  0  0  0  0
  5  6  1  0  0  0  0
  5  7  1  0  0  0  0
  5 30  1  0  0  0  0
  6  8  1  0  0  0  0
  6 31  1  0  0  0  0
  6 32  1  0  0  0  0
  7 33  1  0  0  0  0
  7 34  1  0  0  0  0
  8  9  1  0  0  0  0
  8 35  1  0  0  0  0
  8 36  1  0  0  0  0
  9 37  1  0  0  0  0
  9 38  1  0  0  0  0
 10 11  1  0  0  0  0
 10 39  1  0  0  0  0
 10 40  1  0  0  0  0
 11 14  2  0  0  0  0
 11 15  1  0  0  0  0
 12 13  2  0  0  0  0
 12 16  1  0  0  0  0
 13 17  1  0  0  0  0
 13 42  1  0  0  0  0
 14 20  1  0  0  0  0
 14 43  1  0  0  0  0
 15 21  2  0  0  0  0
 15 44  1  0  0  0  0
 16 19  2  0  0  0  0
 16 45  1  0  0  0  0
 17 18  2  0  0  0  0
 17 23  1  0  0  0  0
 18 19  1  0  0  0  0
 19 46  1  0  0  0  0
 20 22  2  0  0  0  0
 20 47  1  0  0  0  0
 21 22  1  0  0  0  0
 21 48  1  0  0  0  0
 22 24  1  0  0  0  0
 23 49  1  0  0  0  0
 24 25  2  0  0  0  0
 24 26  1  0  0  0  0
 25 27  1  0  0  0  0
 25 51  1  0  0  0  0
 26 28  2  0  0  0  0
 26 52  1  0  0  0  0
 27 29  2  0  0  0  0
 27 53  1  0  0  0  0
 28 29  1  0  0  0  0
 28 54  1  0  0  0  0
 29 55  1  0  0  0  0
M  END
> <PUBCHEM_COMPOUND_CID>
57446028

> <PUBCHEM_CONFORMER_RMSD>
0.8

> <PUBCHEM_CONFORMER_DIVERSEORDER>
1
89
32
40
43
97
175
18
115
38
173
182
91
14
31
185
114
138
191
132
172
150
5
61
123
145
29
177
120
156
22
92
171
98
28
26
87
124
80
79
196
188
81
67
121
55
148
52
207
187
44
126
159
63
69
48
107
131
128
60
200
170
19
111
143
46
139
129
85
179
78
42
82
183
77
54
169
204
203
34
205
106
86
201
117
144
75
93
160
51
64
142
194
149
134
104
76
68
25
27
57
90
8
41
151
140
202
176
56
130
197
118
23
100
88
66
174
153
35
189
3
21
195
36
13
71
163
161
141
133
112
147
164
84
119
20
109
73
108
96
190
208
135
136
165
116
110
103
113
58
33
30
186
206
199
49
10
83
11
125
9
95
162
7
158
72
154
74
59
168
94
166
102
101
24
47
50
2
105
137
65
152
45
70
17
15
184
99
178
127
193
155
53
6
181
12
39
192
62
167
16
198
37
180
4
146
157
122

> <PUBCHEM_MMFF94_PARTIAL_CHARGES>
39
1 -0.81
10 0.41
11 -0.14
12 0.1
13 -0.15
14 -0.15
15 -0.15
16 -0.15
18 -0.15
19 -0.15
2 -0.87
20 -0.15
21 -0.15
23 0.14
25 -0.15
26 -0.15
27 -0.15
28 -0.15
29 -0.15
3 0.3
4 -0.71
41 0.4
42 0.15
43 0.15
44 0.15
45 0.15
46 0.15
47 0.15
48 0.15
49 0.15
5 0.37
50 0.27
51 0.15
52 0.15
53 0.15
54 0.15
55 0.15
7 0.27
9 0.27

> <PUBCHEM_EFFECTIVE_ROTOR_COUNT>
6.2

> <PUBCHEM_PHARMACOPHORE_FEATURES>
10
1 1 cation
1 2 cation
1 2 donor
1 3 donor
1 4 acceptor
5 3 4 17 18 23 rings
6 1 5 6 7 8 9 rings
6 11 14 15 20 21 22 rings
6 12 13 16 17 18 19 rings
6 24 25 26 27 28 29 rings

> <PUBCHEM_HEAVY_ATOM_COUNT>
29

> <PUBCHEM_ATOM_DEF_STEREO_COUNT>
0

> <PUBCHEM_ATOM_UDEF_STEREO_COUNT>
1

> <PUBCHEM_BOND_DEF_STEREO_COUNT>
0

> <PUBCHEM_BOND_UDEF_STEREO_COUNT>
0

> <PUBCHEM_ISOTOPIC_ATOM_COUNT>
0

> <PUBCHEM_COMPONENT_COUNT>
1

> <PUBCHEM_CACTVS_TAUTO_COUNT>
2

> <PUBCHEM_CONFORMER_ID>
036C8E8C00000001

> <PUBCHEM_MMFF94_ENERGY>
80.84

> <PUBCHEM_FEATURE_SELFOVERLAP>
50.839

> <PUBCHEM_SHAPE_FINGERPRINT>
10087517 78 18339074995103567962
10670039 82 18410006667838944530
10815517 723 18186525372090576788
10864689 126 18194688068832181932
10871710 139 18410854365550123147
10951579 204 18339096917424022412
1100329 8 18193844958366978135
11059048 146 17622172264984734688
11211813 163 18338250263163010526
11476731 118 17762620994853646536
11513181 2 18128538167585933711
12107183 9 18191013501288705154
12788726 201 18336816576402765195
12925494 130 16608854532092084553
12978246 48 18335421201889984240
13615921 28 18122900104113402375
13773456 30 17467047679965307700
14028597 1 17533750919470352656
14068700 675 18127688447314098119
14114211 80 17914905227778906121
14251764 75 18055081960540128313
14363568 33 17399246733561704595
14394314 77 18337678615410664961
151778 21 17547856252872919801
15320467 1 18410576171680740636
15322535 138 18119805811999716892
15351339 4 17685486946163726584
15400415 2 18050848823720648904
15419008 145 18265877208256996088
15604295 49 18126846230921264488
15721738 15 16025617476973677076
15876981 60 18263925625517928855
15961568 22 18340488975262051814
16067690 210 18113616794248461648
16992787 43 18337664202107146677
19611394 137 17826243070905373035
20764821 26 18119539970619651780
21033650 10 18264794171686053518
21796203 349 17829084161695499001
21859007 373 18272364322576053400
325973 47 17762060234536324516
3610482 184 18115047263640741750
373842 8 17833544974969896920
463206 1 18191312774029140853
469060 322 18337971072666231843
5047190 69 18270391811395646760
50677037 204 18265894846838516544
5252454 2 18128250087080916155
550186 7 18271534156193851518
5776283 40 17980225001492727054
6036956 94 18187936139265993389
6176135 31 18050847710790739808
6287921 2 18046641005304300356
6371009 1 17833245555461145635
653340 110 18412255164881009432
6608658 132 18268987755651251894
6700243 42 17625015941726008310
7808743 9 18411979126810545802
9980921 221 18264230109609838252
9982175 49 17750532830594037780

> <PUBCHEM_SHAPE_MULTIPOLES>
576.88
12.34
6.81
1.07
18.68
3.4
0.12
3.09
-0.55
-8.83
-0.84
-0.05
-0.22
-2.06

> <PUBCHEM_SHAPE_SELFOVERLAP>
1270.785

> <PUBCHEM_SHAPE_VOLUME>
309

> <PUBCHEM_COORDINATE_TYPE>
2
5
10

$$$$
59799793
  -OEChem-05102415113D

 52 56  0     1  0  0  0  0  0999 V2000
   -1.0804   -3.0809   -0.0874 N   0  0  2  0  0  0  0  0  0  0  0  0
   -3.7404   -0.4712    0.2354 N   0  0  0  0  0  0  0  0  0  0  0  0
   -1.9134    4.6882   -0.0001 N   0  0  0  0  0  0  0  0  0  0  0  0
    4.3402    0.2584    0.0333 N   0  0  0  0  0  0  0  0  0  0  0  0
   -0.7744    4.5984   -0.7067 N   0  0  0  0  0  0  0  0  0  0  0  0
    6.0745    1.2778   -0.9072 N   0  0  0  0  0  0  0  0  0  0  0  0
   -2.9993   -1.5438   -0.3955 C   0  0  2  0  0  0  0  0  0  0  0  0
   -3.9284   -2.7324   -0.6450 C   0  0  0  0  0  0  0  0  0  0  0  0
   -1.8176   -1.9500    0.4950 C   0  0  0  0  0  0  0  0  0  0  0  0
   -3.1375   -3.9258   -1.1693 C   0  0  0  0  0  0  0  0  0  0  0  0
   -1.9525   -4.2508   -0.2592 C   0  0  0  0  0  0  0  0  0  0  0  0
    0.0746   -3.4214    0.7432 C   0  0  0  0  0  0  0  0  0  0  0  0
    1.2067   -2.4467    0.5560 C   0  0  0  0  0  0  0  0  0  0  0  0
   -3.3374    0.8518    0.2149 C   0  0  0  0  0  0  0  0  0  0  0  0
   -2.1521    1.1995   -0.4454 C   0  0  0  0  0  0  0  0  0  0  0  0
    2.0026   -2.5142   -0.5876 C   0  0  0  0  0  0  0  0  0  0  0  0
    1.4593   -1.4757    1.5250 C   0  0  0  0  0  0  0  0  0  0  0  0
   -4.1157    1.8207    0.8510 C   0  0  0  0  0  0  0  0  0  0  0  0
   -1.7603    2.5485   -0.4551 C   0  0  0  0  0  0  0  0  0  0  0  0
   -2.5539    3.4930    0.1862 C   0  0  0  0  0  0  0  0  0  0  0  0
   -3.7388    3.1677    0.8500 C   0  0  0  0  0  0  0  0  0  0  0  0
    3.0510   -1.6110   -0.7620 C   0  0  0  0  0  0  0  0  0  0  0  0
    2.5077   -0.5725    1.3507 C   0  0  0  0  0  0  0  0  0  0  0  0
    3.3036   -0.6401    0.2071 C   0  0  0  0  0  0  0  0  0  0  0  0
   -0.6844    3.2952   -0.9817 C   0  0  0  0  0  0  0  0  0  0  0  0
    4.7003    1.2558    0.8950 C   0  0  0  0  0  0  0  0  0  0  0  0
    5.1934    0.3106   -1.0337 C   0  0  0  0  0  0  0  0  0  0  0  0
    5.7726    1.8711    0.2930 C   0  0  0  0  0  0  0  0  0  0  0  0
   -2.6376   -1.2362   -1.3856 H   0  0  0  0  0  0  0  0  0  0  0  0
   -4.7141   -2.4601   -1.3600 H   0  0  0  0  0  0  0  0  0  0  0  0
   -4.4380   -3.0176    0.2850 H   0  0  0  0  0  0  0  0  0  0  0  0
   -1.1511   -1.0932    0.6234 H   0  0  0  0  0  0  0  0  0  0  0  0
   -2.1836   -2.2065    1.4998 H   0  0  0  0  0  0  0  0  0  0  0  0
   -2.7751   -3.7083   -2.1821 H   0  0  0  0  0  0  0  0  0  0  0  0
   -3.7950   -4.7991   -1.2465 H   0  0  0  0  0  0  0  0  0  0  0  0
   -2.3191   -4.6102    0.7115 H   0  0  0  0  0  0  0  0  0  0  0  0
   -1.3899   -5.0720   -0.7200 H   0  0  0  0  0  0  0  0  0  0  0  0
    0.4665   -4.4102    0.4654 H   0  0  0  0  0  0  0  0  0  0  0  0
   -0.1984   -3.5095    1.8038 H   0  0  0  0  0  0  0  0  0  0  0  0
   -4.5600   -0.7070    0.7845 H   0  0  0  0  0  0  0  0  0  0  0  0
   -1.5160    0.4910   -0.9610 H   0  0  0  0  0  0  0  0  0  0  0  0
    1.8146   -3.2662   -1.3496 H   0  0  0  0  0  0  0  0  0  0  0  0
    0.8462   -1.4122    2.4202 H   0  0  0  0  0  0  0  0  0  0  0  0
   -5.0348    1.5386    1.3607 H   0  0  0  0  0  0  0  0  0  0  0  0
   -4.3419    3.9216    1.3434 H   0  0  0  0  0  0  0  0  0  0  0  0
    3.6332   -1.7136   -1.6713 H   0  0  0  0  0  0  0  0  0  0  0  0
    2.6535    0.1595    2.1377 H   0  0  0  0  0  0  0  0  0  0  0  0
    0.1615    2.9416   -1.5542 H   0  0  0  0  0  0  0  0  0  0  0  0
   -2.2009    5.6015    0.3289 H   0  0  0  0  0  0  0  0  0  0  0  0
    4.2150    1.4736    1.8351 H   0  0  0  0  0  0  0  0  0  0  0  0
    5.1633   -0.3531   -1.8864 H   0  0  0  0  0  0  0  0  0  0  0  0
    6.3426    2.7109    0.6628 H   0  0  0  0  0  0  0  0  0  0  0  0
  1  9  1  0  0  0  0
  1 11  1  0  0  0  0
  1 12  1  0  0  0  0
  2  7  1  0  0  0  0
  2 14  1  0  0  0  0
  2 40  1  0  0  0  0
  3  5  1  0  0  0  0
  3 20  1  0  0  0  0
  3 49  1  0  0  0  0
  4 24  1  0  0  0  0
  4 26  1  0  0  0  0
  4 27  1  0  0  0  0
  5 25  2  0  0  0  0
  6 27  2  0  0  0  0
  6 28  1  0  0  0  0
  7  8  1  0  0  0  0
  7  9  1  0  0  0  0
  7 29  1  0  0  0  0
  8 10  1  0  0  0  0
  8 30  1  0  0  0  0
  8 31  1  0  0  0  0
  9 32  1  0  0  0  0
  9 33  1  0  0  0  0
 10 11  1  0  0  0  0
 10 34  1  0  0  0  0
 10 35  1  0  0  0  0
 11 36  1  0  0  0  0
 11 37  1  0  0  0  0
 12 13  1  0  0  0  0
 12 38  1  0  0  0  0
 12 39  1  0  0  0  0
 13 16  2  0  0  0  0
 13 17  1  0  0  0  0
 14 15  2  0  0  0  0
 14 18  1  0  0  0  0
 15 19  1  0  0  0  0
 15 41  1  0  0  0  0
 16 22  1  0  0  0  0
 16 42  1  0  0  0  0
 17 23  2  0  0  0  0
 17 43  1  0  0  0  0
 18 21  2  0  0  0  0
 18 44  1  0  0  0  0
 19 20  2  0  0  0  0
 19 25  1  0  0  0  0
 20 21  1  0  0  0  0
 21 45  1  0  0  0  0
 22 24  2  0  0  0  0
 22 46  1  0  0  0  0
 23 24  1  0  0  0  0
 23 47  1  0  0  0  0
 25 48  1  0  0  0  0
 26 28  2  0  0  0  0
 26 50  1  0  0  0  0
 27 51  1  0  0  0  0
 28 52  1  0  0  0  0
M  END
> <PUBCHEM_COMPOUND_CID>
59799793

> <PUBCHEM_CONFORMER_RMSD>
0.8

> <PUBCHEM_CONFORMER_DIVERSEORDER>
1
225
250
290
183
265
254
273
168
143
222
257
82
117
87
50
23
264
119
245
176
316
317
234
166
184
321
323
305
327
185
258
128
55
113
298
120
307
53
217
45
85
190
300
262
121
220
213
240
284
89
235
218
104
195
320
52
275
253
289
212
342
280
131
283
211
115
74
248
301
293
319
43
308
152
188
102
93
255
285
174
100
331
256
161
287
125
103
237
177
28
304
129
204
302
282
303
68
42
107
239
206
311
181
158
340
97
244
165
138
86
194
61
196
77
81
199
226
207
214
337
95
223
157
31
70
179
123
246
336
46
109
259
66
37
112
169
175
40
281
139
345
94
288
274
27
88
51
197
202
164
154
105
114
216
65
34
20
261
271
56
191
232
6
84
292
310
228
236
318
111
182
47
260
291
269
133
16
335
171
108
201
124
78
279
209
80
99
187
263
8
221
146
328
26
163
36
30
219
106
140
278
118
155
286
215
57
122
322
33
309
41
101
339
329
338
141
249
297
63
135
145
294
296
17
79
3
90
193
5
44
150
149
156
326
24
142
49
229
10
333
83
200
205
15
172
208
332
230
315
18
178
276
162
343
267
203
22
170
325
160
130
96
38
312
7
21
92
189
25
233
324
98
147
266
126
227
11
334
32
341
173
224
58
251
64
330
136
76
12
72
180
252
231
4
67
60
295
110
62
242
2
19
238
13
186
198
277
116
151
268
73
313
48
127
306
192
75
69
137
29
167
134
344
299
241
54
35
272
71
159
9
144
39
132
59
153
270
210
148
91
247
314
14
243

> <PUBCHEM_MMFF94_PARTIAL_CHARGES>
38
1 -0.81
11 0.27
12 0.41
13 -0.14
14 0.1
15 -0.15
16 -0.15
17 -0.15
18 -0.15
2 -0.87
20 -0.15
21 -0.15
22 -0.15
23 -0.15
24 -0.02
25 0.14
26 -0.3
27 0.04
28 0.08
3 0.3
4 0.33
40 0.4
41 0.15
42 0.15
43 0.15
44 0.15
45 0.15
46 0.15
47 0.15
48 0.15
49 0.27
5 -0.71
50 0.15
51 0.15
52 0.15
6 -0.57
7 0.37
9 0.27

> <PUBCHEM_EFFECTIVE_ROTOR_COUNT>
6.2

> <PUBCHEM_PHARMACOPHORE_FEATURES>
11
1 1 cation
1 2 cation
1 2 donor
1 3 donor
1 5 acceptor
3 4 6 27 cation
5 3 5 19 20 25 rings
5 4 6 26 27 28 rings
6 1 7 8 9 10 11 rings
6 13 16 17 22 23 24 rings
6 14 15 18 19 20 21 rings

> <PUBCHEM_HEAVY_ATOM_COUNT>
28

> <PUBCHEM_ATOM_DEF_STEREO_COUNT>
0

> <PUBCHEM_ATOM_UDEF_STEREO_COUNT>
1

> <PUBCHEM_BOND_DEF_STEREO_COUNT>
0

> <PUBCHEM_BOND_UDEF_STEREO_COUNT>
0

> <PUBCHEM_ISOTOPIC_ATOM_COUNT>
0

> <PUBCHEM_COMPONENT_COUNT>
1

> <PUBCHEM_CACTVS_TAUTO_COUNT>
2

> <PUBCHEM_CONFORMER_ID>
039078F100000001

> <PUBCHEM_MMFF94_ENERGY>
70.6623

> <PUBCHEM_FEATURE_SELFOVERLAP>
55.914

> <PUBCHEM_SHAPE_FINGERPRINT>
10087517 78 18267297819633227312
10498660 4 18336537257562868919
10670039 82 18335984251001634678
10864689 126 18339081463398870260
10871710 139 18410854369797676075
10937287 8 18266739074030964355
1100329 8 18193278722710983759
11014199 57 18051415368080648819
11059048 146 17838343973509759808
11135609 187 18263912256060514333
11211813 163 18337406946392398318
11410812 94 18193305034419547708
11513181 2 18200595778761519807
12100795 323 17902227810922799709
12156800 1 16122802648427346323
12788726 201 18335692888251053715
12925494 130 16537074014984349737
12978246 48 18048029666899345808
13561361 72 18196078062088525232
13615921 28 18049996989759961399
14114211 80 17986121712501214769
14251764 75 18127139567462945153
14363568 33 17182514321245710939
14790565 3 18125446302481938497
151778 21 17691688887734937057
15322535 138 18192700164540875900
15351339 4 17468753443485423168
15961568 22 18268147737494572486
16992727 255 17543937615408075326
16992787 43 18337946798070204645
19611394 137 17754184394340507707
20764821 26 18046921638557513692
20765182 5 18336828709790669932
21033650 10 18191046649819609622
21133410 127 17681283161641483668
21796203 349 17684126769103259121
21859007 373 18272083955716800744
24180151 248 18200327524106180727
325973 47 17761776569268776108
3610482 184 18042428923025650774
373842 8 17617089652706479048
463206 1 18118971531713506237
469060 322 18265069092178817299
50677037 204 18194964265066992128
5252454 2 18271524178620468651
550186 7 18270973426743784046
5776283 40 18052000033979952958
6036956 94 18115593784590823837
6287921 2 18046356236129891092
6371009 1 17905302066987921459
653340 110 18412257376688920440
6608658 132 18268981154112567950
6700243 42 17624454091389677358
7808743 9 18411418397481758514

> <PUBCHEM_SHAPE_MULTIPOLES>
546.34
10.83
6.93
1.13
15.47
2.12
0.1
4.82
-0.76
-7.99
-1.1
0.4
-0.14
-1.25

> <PUBCHEM_SHAPE_SELFOVERLAP>
1205.692

> <PUBCHEM_SHAPE_VOLUME>
293.9

> <PUBCHEM_COORDINATE_TYPE>
2
5
10

$$$$
57446029
  -OEChem-05102415113D

 57 61  0     1  0  0  0  0  0999 V2000
   -1.1381   -3.0714   -0.0867 N   0  0  2  0  0  0  0  0  0  0  0  0
   -3.7537   -0.4182    0.2434 N   0  0  0  0  0  0  0  0  0  0  0  0
    4.3361    0.1734    0.0170 N   0  0  0  0  0  0  0  0  0  0  0  0
   -1.8432    4.7104   -0.0027 N   0  0  0  0  0  0  0  0  0  0  0  0
   -0.7082    4.6013   -0.7134 N   0  0  0  0  0  0  0  0  0  0  0  0
   -3.0326   -1.5032   -0.3893 C   0  0  1  0  0  0  0  0  0  0  0  0
   -1.8546   -1.9281    0.4974 C   0  0  0  0  0  0  0  0  0  0  0  0
   -3.9820   -2.6766   -0.6345 C   0  0  0  0  0  0  0  0  0  0  0  0
   -3.2126   -3.8832   -1.1606 C   0  0  0  0  0  0  0  0  0  0  0  0
   -2.0299   -4.2270   -0.2544 C   0  0  0  0  0  0  0  0  0  0  0  0
    0.0141   -3.4303    0.7401 C   0  0  0  0  0  0  0  0  0  0  0  0
    4.7000    1.2193    0.9697 C   0  0  0  0  0  0  0  0  0  0  0  0
    5.2208    0.1712   -1.1455 C   0  0  0  0  0  0  0  0  0  0  0  0
    6.0671    1.6953    0.4836 C   0  0  0  0  0  0  0  0  0  0  0  0
    5.9927    1.4826   -1.0183 C   0  0  0  0  0  0  0  0  0  0  0  0
    1.1614   -2.4744    0.5481 C   0  0  0  0  0  0  0  0  0  0  0  0
    3.2864   -0.7025    0.1926 C   0  0  0  0  0  0  0  0  0  0  0  0
   -3.3292    0.8981    0.2203 C   0  0  0  0  0  0  0  0  0  0  0  0
    1.9526   -2.5551   -0.5979 C   0  0  0  0  0  0  0  0  0  0  0  0
    1.4327   -1.5077    1.5163 C   0  0  0  0  0  0  0  0  0  0  0  0
    3.0150   -1.6692   -0.7757 C   0  0  0  0  0  0  0  0  0  0  0  0
    2.4953   -0.6217    1.3386 C   0  0  0  0  0  0  0  0  0  0  0  0
   -2.1407    1.2257   -0.4444 C   0  0  0  0  0  0  0  0  0  0  0  0
   -4.0892    1.8801    0.8584 C   0  0  0  0  0  0  0  0  0  0  0  0
   -1.7268    2.5681   -0.4565 C   0  0  0  0  0  0  0  0  0  0  0  0
   -2.5025    3.5259    0.1868 C   0  0  0  0  0  0  0  0  0  0  0  0
   -3.6902    3.2206    0.8550 C   0  0  0  0  0  0  0  0  0  0  0  0
   -0.6407    3.2966   -0.9875 C   0  0  0  0  0  0  0  0  0  0  0  0
   -2.6694   -1.2024   -1.3809 H   0  0  0  0  0  0  0  0  0  0  0  0
   -1.1736   -1.0823    0.6227 H   0  0  0  0  0  0  0  0  0  0  0  0
   -2.2212   -2.1778    1.5037 H   0  0  0  0  0  0  0  0  0  0  0  0
   -4.4929   -2.9527    0.2975 H   0  0  0  0  0  0  0  0  0  0  0  0
   -4.7656   -2.3920   -1.3470 H   0  0  0  0  0  0  0  0  0  0  0  0
   -3.8846   -4.7457   -1.2347 H   0  0  0  0  0  0  0  0  0  0  0  0
   -2.8503   -3.6725   -2.1748 H   0  0  0  0  0  0  0  0  0  0  0  0
   -2.3989   -4.5796    0.7178 H   0  0  0  0  0  0  0  0  0  0  0  0
   -1.4825   -5.0576   -0.7166 H   0  0  0  0  0  0  0  0  0  0  0  0
    0.3888   -4.4255    0.4616 H   0  0  0  0  0  0  0  0  0  0  0  0
   -0.2566   -3.5132    1.8017 H   0  0  0  0  0  0  0  0  0  0  0  0
   -4.5751   -0.6400    0.7956 H   0  0  0  0  0  0  0  0  0  0  0  0
    4.7864    0.8514    1.9976 H   0  0  0  0  0  0  0  0  0  0  0  0
    3.9697    2.0356    0.9324 H   0  0  0  0  0  0  0  0  0  0  0  0
    4.6783    0.1584   -2.0968 H   0  0  0  0  0  0  0  0  0  0  0  0
    5.9025   -0.6857   -1.1003 H   0  0  0  0  0  0  0  0  0  0  0  0
    6.8579    1.0662    0.9101 H   0  0  0  0  0  0  0  0  0  0  0  0
    6.2705    2.7340    0.7581 H   0  0  0  0  0  0  0  0  0  0  0  0
    5.4260    2.2991   -1.4824 H   0  0  0  0  0  0  0  0  0  0  0  0
    6.9771    1.4366   -1.4922 H   0  0  0  0  0  0  0  0  0  0  0  0
    1.7514   -3.3051   -1.3584 H   0  0  0  0  0  0  0  0  0  0  0  0
    0.8228   -1.4327    2.4127 H   0  0  0  0  0  0  0  0  0  0  0  0
    3.6096   -1.7727   -1.6783 H   0  0  0  0  0  0  0  0  0  0  0  0
    2.6653    0.1202    2.1129 H   0  0  0  0  0  0  0  0  0  0  0  0
   -1.5181    0.5065   -0.9616 H   0  0  0  0  0  0  0  0  0  0  0  0
   -5.0110    1.6135    1.3716 H   0  0  0  0  0  0  0  0  0  0  0  0
   -4.2791    3.9848    1.3500 H   0  0  0  0  0  0  0  0  0  0  0  0
    0.1972    2.9287   -1.5628 H   0  0  0  0  0  0  0  0  0  0  0  0
   -2.1144    5.6285    0.3265 H   0  0  0  0  0  0  0  0  0  0  0  0
  1  7  1  0  0  0  0
  1 10  1  0  0  0  0
  1 11  1  0  0  0  0
  2  6  1  0  0  0  0
  2 18  1  0  0  0  0
  2 40  1  0  0  0  0
  3 12  1  0  0  0  0
  3 13  1  0  0  0  0
  3 17  1  0  0  0  0
  4  5  1  0  0  0  0
  4 26  1  0  0  0  0
  4 57  1  0  0  0  0
  5 28  2  0  0  0  0
  6  7  1  0  0  0  0
  6  8  1  0  0  0  0
  6 29  1  0  0  0  0
  7 30  1  0  0  0  0
  7 31  1  0  0  0  0
  8  9  1  0  0  0  0
  8 32  1  0  0  0  0
  8 33  1  0  0  0  0
  9 10  1  0  0  0  0
  9 34  1  0  0  0  0
  9 35  1  0  0  0  0
 10 36  1  0  0  0  0
 10 37  1  0  0  0  0
 11 16  1  0  0  0  0
 11 38  1  0  0  0  0
 11 39  1  0  0  0  0
 12 14  1  0  0  0  0
 12 41  1  0  0  0  0
 12 42  1  0  0  0  0
 13 15  1  0  0  0  0
 13 43  1  0  0  0  0
 13 44  1  0  0  0  0
 14 15  1  0  0  0  0
 14 45  1  0  0  0  0
 14 46  1  0  0  0  0
 15 47  1  0  0  0  0
 15 48  1  0  0  0  0
 16 19  2  0  0  0  0
 16 20  1  0  0  0  0
 17 21  2  0  0  0  0
 17 22  1  0  0  0  0
 18 23  2  0  0  0  0
 18 24  1  0  0  0  0
 19 21  1  0  0  0  0
 19 49  1  0  0  0  0
 20 22  2  0  0  0  0
 20 50  1  0  0  0  0
 21 51  1  0  0  0  0
 22 52  1  0  0  0  0
 23 25  1  0  0  0  0
 23 53  1  0  0  0  0
 24 27  2  0  0  0  0
 24 54  1  0  0  0  0
 25 26  2  0  0  0  0
 25 28  1  0  0  0  0
 26 27  1  0  0  0  0
 27 55  1  0  0  0  0
 28 56  1  0  0  0  0
M  END
> <PUBCHEM_COMPOUND_CID>
57446029

> <PUBCHEM_CONFORMER_RMSD>
0.8

> <PUBCHEM_CONFORMER_DIVERSEORDER>
1
124
102
165
215
101
48
173
58
189
191
22
108
21
49
144
138
13
123
171
38
213
81
182
29
159
136
51
166
135
130
115
119
103
110
211
121
25
17
172
181
14
80
145
40
113
155
205
28
209
57
217
42
91
167
52
60
59
112
83
156
175
125
194
157
148
47
160
111
143
94
140
122
127
126
131
198
70
151
207
193
137
174
118
95
33
53
36
195
185
75
35
30
104
170
50
184
186
117
134
66
73
105
178
132
133
44
142
100
19
179
200
196
63
114
98
109
7
107
2
164
72
116
85
203
18
180
90
188
216
74
71
201
31
16
120
46
34
139
24
154
214
43
168
37
93
106
163
210
20
150
128
3
88
141
158
67
55
79
4
78
197
87
8
192
129
9
27
147
41
177
152
68
82
153
84
206
202
6
23
161
45
208
204
69
62
176
54
39
187
149
218
89
61
76
169
5
97
26
10
86
11
183
77
32
65
199
212
56
146
64
92
12
96
162
190
15
99

> <PUBCHEM_MMFF94_PARTIAL_CHARGES>
33
1 -0.81
10 0.27
11 0.41
12 0.37
13 0.37
16 -0.14
17 0.1
18 0.1
19 -0.15
2 -0.87
20 -0.15
21 -0.15
22 -0.15
23 -0.15
24 -0.15
26 -0.15
27 -0.15
28 0.14
3 -0.84
4 0.3
40 0.4
49 0.15
5 -0.71
50 0.15
51 0.15
52 0.15
53 0.15
54 0.15
55 0.15
56 0.15
57 0.27
6 0.37
7 0.27

> <PUBCHEM_EFFECTIVE_ROTOR_COUNT>
7.2

> <PUBCHEM_PHARMACOPHORE_FEATURES>
11
1 1 cation
1 2 cation
1 2 donor
1 3 cation
1 4 donor
1 5 acceptor
5 3 12 13 14 15 rings
5 4 5 25 26 28 rings
6 1 6 7 8 9 10 rings
6 16 17 19 20 21 22 rings
6 18 23 24 25 26 27 rings

> <PUBCHEM_HEAVY_ATOM_COUNT>
28

> <PUBCHEM_ATOM_DEF_STEREO_COUNT>
0

> <PUBCHEM_ATOM_UDEF_STEREO_COUNT>
1

> <PUBCHEM_BOND_DEF_STEREO_COUNT>
0

> <PUBCHEM_BOND_UDEF_STEREO_COUNT>
0

> <PUBCHEM_ISOTOPIC_ATOM_COUNT>
0

> <PUBCHEM_COMPONENT_COUNT>
1

> <PUBCHEM_CACTVS_TAUTO_COUNT>
2

> <PUBCHEM_CONFORMER_ID>
036C8E8D00000001

> <PUBCHEM_MMFF94_ENERGY>
78.1043

> <PUBCHEM_FEATURE_SELFOVERLAP>
55.914

> <PUBCHEM_SHAPE_FINGERPRINT>
10087517 78 18267297815332939784
10498660 4 18336537253299563127
10670039 82 18335703875557637918
10771551 21 17466525811527372292
10864689 126 18267024964582864596
10871710 139 18410573994327311947
10937287 8 18266457599001480187
10951579 204 18338533988977274508
1100329 8 18193560193408538383
11014199 57 18051415363796237523
11059048 146 17766286375197963576
11135609 187 18263912251760278789
11211813 163 18337406942092195286
11410812 94 18193305030124560932
11476731 47 17110705784363012685
11513181 2 18200595778750976807
12100795 323 17830170212605709261
12107183 9 18119516653880733482
12156800 1 16122802644111280051
12788726 201 18335692883924424907
12925494 130 16537356585214624681
12978246 48 17975973168067535336
13561361 72 18196076958297767440
13615921 28 18049998089282132191
14114211 80 17986121712490665249
14251764 75 18126858092454559985
14790565 3 18053388699827708705
151778 21 17691689982962127537
15322535 138 18192419784796650044
15351339 4 17540811033217788848
15961568 22 18268146633687983886
16067690 210 18043236041479693568
16992787 43 18337946793769988565
19611394 137 17754184394308852699
20764821 26 18046922733795273212
20765182 5 18336828705506252132
21033650 10 18190764075368174958
21133410 127 17608945183548512292
21796203 349 17756183263634827553
21859007 373 18272365426403799376
24180151 248 18200046049129463567
325973 47 17761777668780390940
3610482 184 18042430022532036326
373842 8 17616808173445337616
463206 1 18118971527402727685
469060 322 18265069083578274731
50677037 204 18340206396341355224
5252454 2 18271242695053829883
550186 7 18271253802214141646
5776283 40 18052000033985266678
6036956 94 18187651365722744389
6287921 2 18046356231861304052
6371009 1 17905302062708810891
653340 110 18412257372409764376
6608658 132 18269261525251054518
6700243 42 17624735566366400998
7808743 9 18411418393202602490

> <PUBCHEM_SHAPE_MULTIPOLES>
551.32
11.16
6.92
1.16
16.69
2.61
0.09
4.39
-0.87
-8.25
-1.01
0.56
-0.11
-1.28

> <PUBCHEM_SHAPE_SELFOVERLAP>
1198.611

> <PUBCHEM_SHAPE_VOLUME>
300.5

> <PUBCHEM_COORDINATE_TYPE>
2
5
10

$$$$
57446030
  -OEChem-05102415113D

 58 62  0     1  0  0  0  0  0999 V2000
    6.2952    1.5555   -0.4692 O   0  0  0  0  0  0  0  0  0  0  0  0
   -1.5516   -3.0419   -0.0924 N   0  0  2  0  0  0  0  0  0  0  0  0
   -3.9888   -0.2211    0.2130 N   0  0  0  0  0  0  0  0  0  0  0  0
    4.1412   -0.1584    0.0991 N   0  0  0  0  0  0  0  0  0  0  0  0
   -1.7370    4.7693    0.0158 N   0  0  0  0  0  0  0  0  0  0  0  0
   -0.6019    4.5871   -0.6794 N   0  0  0  0  0  0  0  0  0  0  0  0
   -3.3328   -1.3497   -0.4144 C   0  0  1  0  0  0  0  0  0  0  0  0
   -2.1984   -1.8554    0.4867 C   0  0  0  0  0  0  0  0  0  0  0  0
   -4.3548   -2.4562   -0.6779 C   0  0  0  0  0  0  0  0  0  0  0  0
   -3.6603   -3.7097   -1.1986 C   0  0  0  0  0  0  0  0  0  0  0  0
   -2.5160   -4.1348   -0.2775 C   0  0  0  0  0  0  0  0  0  0  0  0
   -0.4378   -3.4797    0.7487 C   0  0  0  0  0  0  0  0  0  0  0  0
    0.7734   -2.6020    0.5769 C   0  0  0  0  0  0  0  0  0  0  0  0
   -3.4771    1.0639    0.2016 C   0  0  0  0  0  0  0  0  0  0  0  0
    1.0949   -1.6589    1.5529 C   0  0  0  0  0  0  0  0  0  0  0  0
    1.5735   -2.7314   -0.5584 C   0  0  0  0  0  0  0  0  0  0  0  0
    3.0168   -0.9747    0.2587 C   0  0  0  0  0  0  0  0  0  0  0  0
    5.3031   -0.6514   -0.6484 C   0  0  0  0  0  0  0  0  0  0  0  0
    3.9415    1.2967    0.0563 C   0  0  0  0  0  0  0  0  0  0  0  0
    2.2167   -0.8452    1.3939 C   0  0  0  0  0  0  0  0  0  0  0  0
    2.6952   -1.9178   -0.7175 C   0  0  0  0  0  0  0  0  0  0  0  0
   -2.2601    1.3138   -0.4452 C   0  0  0  0  0  0  0  0  0  0  0  0
   -4.1788    2.0923    0.8333 C   0  0  0  0  0  0  0  0  0  0  0  0
    6.5379    0.1622   -0.2771 C   0  0  0  0  0  0  0  0  0  0  0  0
    5.2487    2.0060    0.3908 C   0  0  0  0  0  0  0  0  0  0  0  0
   -1.7574    2.6256   -0.4457 C   0  0  0  0  0  0  0  0  0  0  0  0
   -2.4765    3.6308    0.1910 C   0  0  0  0  0  0  0  0  0  0  0  0
   -3.6913    3.4033    0.8413 C   0  0  0  0  0  0  0  0  0  0  0  0
   -0.6177    3.2817   -0.9584 C   0  0  0  0  0  0  0  0  0  0  0  0
   -2.9363   -1.0704   -1.3995 H   0  0  0  0  0  0  0  0  0  0  0  0
   -1.4643   -1.0574    0.6251 H   0  0  0  0  0  0  0  0  0  0  0  0
   -2.5950   -2.0835    1.4867 H   0  0  0  0  0  0  0  0  0  0  0  0
   -5.1076   -2.1175   -1.3999 H   0  0  0  0  0  0  0  0  0  0  0  0
   -4.8962   -2.7007    0.2457 H   0  0  0  0  0  0  0  0  0  0  0  0
   -4.3872   -4.5251   -1.2858 H   0  0  0  0  0  0  0  0  0  0  0  0
   -3.2704   -3.5201   -2.2067 H   0  0  0  0  0  0  0  0  0  0  0  0
   -2.9215   -4.4653    0.6879 H   0  0  0  0  0  0  0  0  0  0  0  0
   -2.0188   -4.9985   -0.7357 H   0  0  0  0  0  0  0  0  0  0  0  0
   -0.1263   -4.4968    0.4711 H   0  0  0  0  0  0  0  0  0  0  0  0
   -0.7284   -3.5481    1.8061 H   0  0  0  0  0  0  0  0  0  0  0  0
   -4.8309   -0.3895    0.7527 H   0  0  0  0  0  0  0  0  0  0  0  0
    0.4817   -1.5493    2.4435 H   0  0  0  0  0  0  0  0  0  0  0  0
    1.3310   -3.4603   -1.3273 H   0  0  0  0  0  0  0  0  0  0  0  0
    5.4998   -1.7072   -0.4279 H   0  0  0  0  0  0  0  0  0  0  0  0
    5.1115   -0.5463   -1.7235 H   0  0  0  0  0  0  0  0  0  0  0  0
    3.6169    1.5736   -0.9545 H   0  0  0  0  0  0  0  0  0  0  0  0
    3.1700    1.6308    0.7586 H   0  0  0  0  0  0  0  0  0  0  0  0
    2.4580   -0.1253    2.1717 H   0  0  0  0  0  0  0  0  0  0  0  0
    3.2875   -2.0360   -1.6204 H   0  0  0  0  0  0  0  0  0  0  0  0
   -1.6796    0.5564   -0.9569 H   0  0  0  0  0  0  0  0  0  0  0  0
   -5.1235    1.8861    1.3325 H   0  0  0  0  0  0  0  0  0  0  0  0
    6.8352   -0.0155    0.7636 H   0  0  0  0  0  0  0  0  0  0  0  0
    7.3798   -0.1242   -0.9154 H   0  0  0  0  0  0  0  0  0  0  0  0
    5.1356    3.0850    0.2459 H   0  0  0  0  0  0  0  0  0  0  0  0
    5.5379    1.8394    1.4356 H   0  0  0  0  0  0  0  0  0  0  0  0
   -4.2348    4.2033    1.3314 H   0  0  0  0  0  0  0  0  0  0  0  0
    0.2021    2.8607   -1.5233 H   0  0  0  0  0  0  0  0  0  0  0  0
   -1.9509    5.7023    0.3453 H   0  0  0  0  0  0  0  0  0  0  0  0
  1 24  1  0  0  0  0
  1 25  1  0  0  0  0
  2  8  1  0  0  0  0
  2 11  1  0  0  0  0
  2 12  1  0  0  0  0
  3  7  1  0  0  0  0
  3 14  1  0  0  0  0
  3 41  1  0  0  0  0
  4 17  1  0  0  0  0
  4 18  1  0  0  0  0
  4 19  1  0  0  0  0
  5  6  1  0  0  0  0
  5 27  1  0  0  0  0
  5 58  1  0  0  0  0
  6 29  2  0  0  0  0
  7  8  1  0  0  0  0
  7  9  1  0  0  0  0
  7 30  1  0  0  0  0
  8 31  1  0  0  0  0
  8 32  1  0  0  0  0
  9 10  1  0  0  0  0
  9 33  1  0  0  0  0
  9 34  1  0  0  0  0
 10 11  1  0  0  0  0
 10 35  1  0  0  0  0
 10 36  1  0  0  0  0
 11 37  1  0  0  0  0
 11 38  1  0  0  0  0
 12 13  1  0  0  0  0
 12 39  1  0  0  0  0
 12 40  1  0  0  0  0
 13 15  2  0  0  0  0
 13 16  1  0  0  0  0
 14 22  2  0  0  0  0
 14 23  1  0  0  0  0
 15 20  1  0  0  0  0
 15 42  1  0  0  0  0
 16 21  2  0  0  0  0
 16 43  1  0  0  0  0
 17 20  2  0  0  0  0
 17 21  1  0  0  0  0
 18 24  1  0  0  0  0
 18 44  1  0  0  0  0
 18 45  1  0  0  0  0
 19 25  1  0  0  0  0
 19 46  1  0  0  0  0
 19 47  1  0  0  0  0
 20 48  1  0  0  0  0
 21 49  1  0  0  0  0
 22 26  1  0  0  0  0
 22 50  1  0  0  0  0
 23 28  2  0  0  0  0
 23 51  1  0  0  0  0
 24 52  1  0  0  0  0
 24 53  1  0  0  0  0
 25 54  1  0  0  0  0
 25 55  1  0  0  0  0
 26 27  2  0  0  0  0
 26 29  1  0  0  0  0
 27 28  1  0  0  0  0
 28 56  1  0  0  0  0
 29 57  1  0  0  0  0
M  END
> <PUBCHEM_COMPOUND_CID>
57446030

> <PUBCHEM_CONFORMER_RMSD>
1

> <PUBCHEM_CONFORMER_DIVERSEORDER>
1
19
54
129
77
6
133
105
37
144
135
17
35
49
115
80
96
106
141
74
61
68
134
66
143
137
71
25
92
132
28
34
114
104
87
38
42
21
59
111
142
126
89
51
145
83
18
75
33
8
109
121
127
62
125
4
146
56
112
40
13
97
120
31
45
102
136
88
139
63
78
53
118
138
130
5
7
47
39
128
11
32
46
64
119
3
79
98
99
82
69
86
22
107
57
10
30
91
70
20
12
95
85
94
72
122
73
100
117
43
140
60
113
36
26
14
116
24
101
50
27
2
76
48
16
90
15
131
124
103
93
65
23
67
29
108
58
110
41
84
9
44
81
123
52
55

> <PUBCHEM_MMFF94_PARTIAL_CHARGES>
36
1 -0.56
11 0.27
12 0.41
13 -0.14
14 0.1
15 -0.15
16 -0.15
17 0.1
18 0.37
19 0.37
2 -0.81
20 -0.15
21 -0.15
22 -0.15
23 -0.15
24 0.28
25 0.28
27 -0.15
28 -0.15
29 0.14
3 -0.87
4 -0.84
41 0.4
42 0.15
43 0.15
48 0.15
49 0.15
5 0.3
50 0.15
51 0.15
56 0.15
57 0.15
58 0.27
6 -0.71
7 0.37
8 0.27

> <PUBCHEM_EFFECTIVE_ROTOR_COUNT>
7.4

> <PUBCHEM_PHARMACOPHORE_FEATURES>
12
1 1 acceptor
1 2 cation
1 3 cation
1 3 donor
1 4 cation
1 5 donor
1 6 acceptor
5 5 6 26 27 29 rings
6 1 4 18 19 24 25 rings
6 13 15 16 17 20 21 rings
6 14 22 23 26 27 28 rings
6 2 7 8 9 10 11 rings

> <PUBCHEM_HEAVY_ATOM_COUNT>
29

> <PUBCHEM_ATOM_DEF_STEREO_COUNT>
0

> <PUBCHEM_ATOM_UDEF_STEREO_COUNT>
1

> <PUBCHEM_BOND_DEF_STEREO_COUNT>
0

> <PUBCHEM_BOND_UDEF_STEREO_COUNT>
0

> <PUBCHEM_ISOTOPIC_ATOM_COUNT>
0

> <PUBCHEM_COMPONENT_COUNT>
1

> <PUBCHEM_CACTVS_TAUTO_COUNT>
2

> <PUBCHEM_CONFORMER_ID>
036C8E8E00000001

> <PUBCHEM_MMFF94_ENERGY>
85.5428

> <PUBCHEM_FEATURE_SELFOVERLAP>
60.989

> <PUBCHEM_SHAPE_FINGERPRINT>
10087517 78 18338795723492513842
10429389 16 18271545134388969718
10670039 82 18408881858853808026
10815517 723 18113905936195612676
10864689 126 18122069702378553036
10871710 139 18410571782503518107
10951579 204 18338815451047860796
1100329 8 18193560189171469911
11014199 57 18195249055557735267
11059048 146 17694226569093544696
11135609 187 18191574265082725517
11211813 163 18265908973629375734
11410812 94 18193584288882114644
11476731 118 17834399304379787780
11513181 2 18128254485022419639
12100795 323 17685492048859375893
12107183 9 18119237369284628666
12788726 201 18335691763180625243
12925494 130 16537356585346461041
12978246 48 18047748200444075896
13561361 72 18267292304943354888
14028597 1 17534032398726219352
14114211 80 17914342269203901641
14251764 75 18054519001975660361
14394314 77 18410860941519846513
144659 178 18192155008515883396
14790565 3 18053106116807516385
151778 21 17547573678337160545
15320467 1 18410576158764170724
15322535 138 18192418680905652392
15400415 2 18122626046588461292
15419008 145 18338217372461765440
15721738 15 16459086767770278412
15876981 60 18263646336589868623
15961568 22 18340206413732422758
15975801 100 17822285722846547012
16067690 210 18114451375198174728
16992787 43 18337101256464465029
19611394 137 17826524545882083691
20764821 26 18118980323385246452
20765182 5 18336547217576028852
21133410 127 17537450517946906164
21796203 349 17756748386899748857
21859007 373 18272081748077113552
24180151 248 18200043841574289167
325973 47 17905891731469235748
3610482 184 18042709281252939542
373842 8 17761207018309596416
463206 1 18191030199567130677
50677037 204 18267302221563736376
5252454 2 18127406757351646315
5283173 99 18342179990429293978
550186 7 18343030999306862510
5776283 40 17979941327455856990
6036956 94 18188215428199276381
6371009 1 17832961881418942459
653340 110 18411974789342001976
6608658 132 18340477988662011566
6700243 42 17625017028310575190
7808743 9 18411417267784111826
9980921 221 18263947539384734068

> <PUBCHEM_SHAPE_MULTIPOLES>
566.03
11.87
6.93
1.05
18.49
3.2
0.15
3.26
-1.25
-8.31
-0.85
-0.06
-0.27
-1.32

> <PUBCHEM_SHAPE_SELFOVERLAP>
1226.018

> <PUBCHEM_SHAPE_VOLUME>
310.7

> <PUBCHEM_COORDINATE_TYPE>
2
5
10

$$$$
57446031
  -OEChem-05102415113D

 57 60  0     1  0  0  0  0  0999 V2000
   -0.9257   -3.0986   -0.1285 N   0  0  2  0  0  0  0  0  0  0  0  0
   -3.4210   -0.3328    0.2088 N   0  0  0  0  0  0  0  0  0  0  0  0
   -1.2699    4.7046    0.1013 N   0  0  0  0  0  0  0  0  0  0  0  0
   -0.1282    4.5564   -0.5909 N   0  0  0  0  0  0  0  0  0  0  0  0
   -2.7393   -1.4378   -0.4329 C   0  0  1  0  0  0  0  0  0  0  0  0
   -1.5991   -1.9347    0.4659 C   0  0  0  0  0  0  0  0  0  0  0  0
   -3.7374   -2.5604   -0.7189 C   0  0  0  0  0  0  0  0  0  0  0  0
   -3.0151   -3.7913   -1.2556 C   0  0  0  0  0  0  0  0  0  0  0  0
   -1.8669   -4.2077   -0.3356 C   0  0  0  0  0  0  0  0  0  0  0  0
    0.1928   -3.5271    0.7113 C   0  0  0  0  0  0  0  0  0  0  0  0
    1.3867   -2.6224    0.5594 C   0  0  0  0  0  0  0  0  0  0  0  0
   -2.9354    0.9624    0.2201 C   0  0  0  0  0  0  0  0  0  0  0  0
    1.6849   -1.6889    1.5519 C   0  0  0  0  0  0  0  0  0  0  0  0
    2.1927   -2.7158   -0.5753 C   0  0  0  0  0  0  0  0  0  0  0  0
    3.5953   -0.9421    0.2755 C   0  0  0  0  0  0  0  0  0  0  0  0
   -1.7207    1.2469   -0.4165 C   0  0  0  0  0  0  0  0  0  0  0  0
    4.7757   -0.0430    0.1239 C   0  0  0  0  0  0  0  0  0  0  0  0
   -3.6608    1.9662    0.8643 C   0  0  0  0  0  0  0  0  0  0  0  0
    2.7891   -0.8488    1.4100 C   0  0  0  0  0  0  0  0  0  0  0  0
    3.2969   -1.8755   -0.7172 C   0  0  0  0  0  0  0  0  0  0  0  0
    4.4740    1.2958   -0.5935 C   0  0  0  0  0  0  0  0  0  0  0  0
   -1.2447    2.5685   -0.3939 C   0  0  0  0  0  0  0  0  0  0  0  0
   -1.9871    3.5488    0.2548 C   0  0  0  0  0  0  0  0  0  0  0  0
   -3.2000    3.2865    0.8954 C   0  0  0  0  0  0  0  0  0  0  0  0
    3.4236    2.1183    0.1571 C   0  0  0  0  0  0  0  0  0  0  0  0
    5.7558    2.1173   -0.7504 C   0  0  0  0  0  0  0  0  0  0  0  0
   -0.1162    3.2555   -0.8904 C   0  0  0  0  0  0  0  0  0  0  0  0
   -2.3439   -1.1350   -1.4115 H   0  0  0  0  0  0  0  0  0  0  0  0
   -1.9958   -2.1864    1.4602 H   0  0  0  0  0  0  0  0  0  0  0  0
   -0.8821   -1.1243    0.6205 H   0  0  0  0  0  0  0  0  0  0  0  0
   -4.4934   -2.2257   -1.4393 H   0  0  0  0  0  0  0  0  0  0  0  0
   -4.2780   -2.8304    0.1980 H   0  0  0  0  0  0  0  0  0  0  0  0
   -3.7250   -4.6198   -1.3593 H   0  0  0  0  0  0  0  0  0  0  0  0
   -2.6244   -3.5780   -2.2587 H   0  0  0  0  0  0  0  0  0  0  0  0
   -2.2701   -4.5615    0.6224 H   0  0  0  0  0  0  0  0  0  0  0  0
   -1.3501   -5.0538   -0.8048 H   0  0  0  0  0  0  0  0  0  0  0  0
    0.5261   -4.5330    0.4192 H   0  0  0  0  0  0  0  0  0  0  0  0
   -0.1014   -3.6180    1.7659 H   0  0  0  0  0  0  0  0  0  0  0  0
   -4.2621   -0.5266    0.7415 H   0  0  0  0  0  0  0  0  0  0  0  0
    1.0654   -1.6057    2.4410 H   0  0  0  0  0  0  0  0  0  0  0  0
    1.9699   -3.4382   -1.3561 H   0  0  0  0  0  0  0  0  0  0  0  0
   -1.1224    0.5096   -0.9369 H   0  0  0  0  0  0  0  0  0  0  0  0
    5.2081    0.1586    1.1136 H   0  0  0  0  0  0  0  0  0  0  0  0
    5.5637   -0.5759   -0.4256 H   0  0  0  0  0  0  0  0  0  0  0  0
   -4.6036    1.7331    1.3555 H   0  0  0  0  0  0  0  0  0  0  0  0
    3.0112   -0.1295    2.1937 H   0  0  0  0  0  0  0  0  0  0  0  0
    3.9156   -1.9562   -1.6070 H   0  0  0  0  0  0  0  0  0  0  0  0
    4.0834    1.0810   -1.5967 H   0  0  0  0  0  0  0  0  0  0  0  0
   -3.7620    4.0675    1.3952 H   0  0  0  0  0  0  0  0  0  0  0  0
    3.7172    2.2865    1.1987 H   0  0  0  0  0  0  0  0  0  0  0  0
    2.4455    1.6291    0.1463 H   0  0  0  0  0  0  0  0  0  0  0  0
    3.2931    3.0984   -0.3149 H   0  0  0  0  0  0  0  0  0  0  0  0
    6.1839    2.3758    0.2241 H   0  0  0  0  0  0  0  0  0  0  0  0
    6.5089    1.5566   -1.3141 H   0  0  0  0  0  0  0  0  0  0  0  0
    5.5585    3.0483   -1.2924 H   0  0  0  0  0  0  0  0  0  0  0  0
    0.7124    2.8609   -1.4612 H   0  0  0  0  0  0  0  0  0  0  0  0
   -1.5043    5.6277    0.4443 H   0  0  0  0  0  0  0  0  0  0  0  0
  1  6  1  0  0  0  0
  1  9  1  0  0  0  0
  1 10  1  0  0  0  0
  2  5  1  0  0  0  0
  2 12  1  0  0  0  0
  2 39  1  0  0  0  0
  3  4  1  0  0  0  0
  3 23  1  0  0  0  0
  3 57  1  0  0  0  0
  4 27  2  0  0  0  0
  5  6  1  0  0  0  0
  5  7  1  0  0  0  0
  5 28  1  0  0  0  0
  6 29  1  0  0  0  0
  6 30  1  0  0  0  0
  7  8  1  0  0  0  0
  7 31  1  0  0  0  0
  7 32  1  0  0  0  0
  8  9  1  0  0  0  0
  8 33  1  0  0  0  0
  8 34  1  0  0  0  0
  9 35  1  0  0  0  0
  9 36  1  0  0  0  0
 10 11  1  0  0  0  0
 10 37  1  0  0  0  0
 10 38  1  0  0  0  0
 11 13  2  0  0  0  0
 11 14  1  0  0  0  0
 12 16  2  0  0  0  0
 12 18  1  0  0  0  0
 13 19  1  0  0  0  0
 13 40  1  0  0  0  0
 14 20  2  0  0  0  0
 14 41  1  0  0  0  0
 15 17  1  0  0  0  0
 15 19  2  0  0  0  0
 15 20  1  0  0  0  0
 16 22  1  0  0  0  0
 16 42  1  0  0  0  0
 17 21  1  0  0  0  0
 17 43  1  0  0  0  0
 17 44  1  0  0  0  0
 18 24  2  0  0  0  0
 18 45  1  0  0  0  0
 19 46  1  0  0  0  0
 20 47  1  0  0  0  0
 21 25  1  0  0  0  0
 21 26  1  0  0  0  0
 21 48  1  0  0  0  0
 22 23  2  0  0  0  0
 22 27  1  0  0  0  0
 23 24  1  0  0  0  0
 24 49  1  0  0  0  0
 25 50  1  0  0  0  0
 25 51  1  0  0  0  0
 25 52  1  0  0  0  0
 26 53  1  0  0  0  0
 26 54  1  0  0  0  0
 26 55  1  0  0  0  0
 27 56  1  0  0  0  0
M  END
> <PUBCHEM_COMPOUND_CID>
57446031

> <PUBCHEM_CONFORMER_RMSD>
1

> <PUBCHEM_CONFORMER_DIVERSEORDER>
1
105
171
192
156
109
193
164
166
163
54
135
120
136
28
74
137
104
60
70
4
20
165
178
168
53
126
174
25
30
86
19
196
141
148
67
24
59
145
37
76
198
181
66
194
134
94
36
153
39
112
190
179
149
180
106
107
129
38
82
154
12
73
111
41
159
123
117
32
130
79
146
34
133
49
115
57
155
101
102
144
77
167
45
183
197
58
29
170
119
89
147
33
189
6
122
96
176
80
98
40
64
16
116
157
195
88
50
43
124
18
71
87
162
46
185
173
114
177
44
65
138
62
13
9
182
151
108
27
128
99
78
92
5
172
55
69
169
175
21
52
22
110
81
118
132
199
56
150
186
158
187
2
14
42
139
26
61
47
127
140
15
91
85
63
188
23
51
90
48
97
3
84
125
142
93
191
121
100
83
68
72
184
75
131
95
161
8
143
113
35
17
7
152
160
10
103
31
11

> <PUBCHEM_MMFF94_PARTIAL_CHARGES>
31
1 -0.81
10 0.41
11 -0.14
12 0.1
13 -0.15
14 -0.15
15 -0.14
16 -0.15
17 0.14
18 -0.15
19 -0.15
2 -0.87
20 -0.15
23 -0.15
24 -0.15
27 0.14
3 0.3
39 0.4
4 -0.71
40 0.15
41 0.15
42 0.15
45 0.15
46 0.15
47 0.15
49 0.15
5 0.37
56 0.15
57 0.27
6 0.27
9 0.27

> <PUBCHEM_EFFECTIVE_ROTOR_COUNT>
7.2

> <PUBCHEM_PHARMACOPHORE_FEATURES>
10
1 1 cation
1 2 cation
1 2 donor
1 3 donor
1 4 acceptor
3 21 25 26 hydrophobe
5 3 4 22 23 27 rings
6 1 5 6 7 8 9 rings
6 11 13 14 15 19 20 rings
6 12 16 18 22 23 24 rings

> <PUBCHEM_HEAVY_ATOM_COUNT>
27

> <PUBCHEM_ATOM_DEF_STEREO_COUNT>
0

> <PUBCHEM_ATOM_UDEF_STEREO_COUNT>
1

> <PUBCHEM_BOND_DEF_STEREO_COUNT>
0

> <PUBCHEM_BOND_UDEF_STEREO_COUNT>
0

> <PUBCHEM_ISOTOPIC_ATOM_COUNT>
0

> <PUBCHEM_COMPONENT_COUNT>
1

> <PUBCHEM_CACTVS_TAUTO_COUNT>
2

> <PUBCHEM_CONFORMER_ID>
036C8E8F00000001

> <PUBCHEM_MMFF94_ENERGY>
62.7404

> <PUBCHEM_FEATURE_SELFOVERLAP>
50.837

> <PUBCHEM_SHAPE_FINGERPRINT>
10429389 16 18126878017514280078
10498660 4 18336537248888648735
10670039 82 18335708299474153806
10871710 139 18410576214561607987
1100329 8 18122067769621455825
11211813 163 18264791925850187836
11374522 363 17755580443622076772
11513181 2 18201442415409905158
12038231 1 18409730664276165408
12100795 323 17686899419279033277
12156800 1 15907476490114112211
12788726 201 18337665429333325010
12925494 130 16609416382396676225
12978246 48 18120088382140093760
13122387 1 17976254643139210648
1361 2 18194116314185059377
13615921 28 17979068611211668823
13773456 30 17539946413531299356
138480 1 16394086908541547599
14114211 80 17624713262146946993
14363568 33 17255410834155543579
14790565 3 18196658393611010761
150020 26 16970541115209343377
151778 21 17547856252561631473
15320467 1 18338800138518570500
15351339 4 17470443401420882272
15927050 60 16322875530636522895
19611394 137 17682409396028390802
19930381 70 16464457435268133834
20764821 26 18336819819213466392
325973 47 17618225447832303972
463206 1 18119814861305489485
532947 4 17185870039434309375
5776283 40 18051441508085270766
6036956 94 18044100269950801757
6287921 2 18119821213725683316
6371009 1 17905585740861371547
653340 110 18340758343322014888
6608658 132 18196932386664807158
6700243 42 17625576688551136806
7808743 9 18411980226628167610

> <PUBCHEM_SHAPE_MULTIPOLES>
535.72
8.94
7.38
1.1
9.81
2.88
0.15
1.91
-1.02
-5.49
-0.9
0.14
-0.3
-2.09

> <PUBCHEM_SHAPE_SELFOVERLAP>
1146.254

> <PUBCHEM_SHAPE_VOLUME>
297.4

> <PUBCHEM_COORDINATE_TYPE>
2
5
10

$$$$
57446032
  -OEChem-05102415113D

 57 60  0     1  0  0  0  0  0999 V2000
   -1.7589    2.7863    0.1914 N   0  0  2  0  0  0  0  0  0  0  0  0
   -3.4741   -0.5219   -0.1308 N   0  0  0  0  0  0  0  0  0  0  0  0
   -0.1012   -4.8374   -0.2467 N   0  0  0  0  0  0  0  0  0  0  0  0
    0.9933   -4.4128    0.4064 N   0  0  0  0  0  0  0  0  0  0  0  0
   -3.0713    0.7097    0.5161 C   0  0  1  0  0  0  0  0  0  0  0  0
   -2.1367    1.4991   -0.4102 C   0  0  0  0  0  0  0  0  0  0  0  0
   -4.3104    1.5325    0.8709 C   0  0  0  0  0  0  0  0  0  0  0  0
   -3.9052    2.8979    1.4150 C   0  0  0  0  0  0  0  0  0  0  0  0
   -2.9430    3.6121    0.4649 C   0  0  0  0  0  0  0  0  0  0  0  0
   -0.8251    3.5030   -0.6771 C   0  0  0  0  0  0  0  0  0  0  0  0
    0.5662    2.9334   -0.5956 C   0  0  0  0  0  0  0  0  0  0  0  0
   -2.6738   -1.6481   -0.1970 C   0  0  0  0  0  0  0  0  0  0  0  0
    1.3698    3.2108    0.5104 C   0  0  0  0  0  0  0  0  0  0  0  0
    1.0503    2.1259   -1.6247 C   0  0  0  0  0  0  0  0  0  0  0  0
   -1.4003   -1.6219    0.3855 C   0  0  0  0  0  0  0  0  0  0  0  0
   -3.1449   -2.7932   -0.8419 C   0  0  0  0  0  0  0  0  0  0  0  0
    3.1419    1.8730   -0.4422 C   0  0  0  0  0  0  0  0  0  0  0  0
    2.6576    2.6804    0.5870 C   0  0  0  0  0  0  0  0  0  0  0  0
    2.3381    1.5957   -1.5480 C   0  0  0  0  0  0  0  0  0  0  0  0
    4.5187    1.3053   -0.3603 C   0  0  0  0  0  0  0  0  0  0  0  0
   -0.6029   -2.7759    0.3076 C   0  0  0  0  0  0  0  0  0  0  0  0
   -1.0966   -3.9025   -0.3405 C   0  0  0  0  0  0  0  0  0  0  0  0
   -2.3629   -3.9497   -0.9276 C   0  0  0  0  0  0  0  0  0  0  0  0
    4.5422   -0.0658    0.3320 C   0  0  0  0  0  0  0  0  0  0  0  0
    5.9623   -0.6198    0.4458 C   0  0  0  0  0  0  0  0  0  0  0  0
    0.6845   -3.1582    0.7420 C   0  0  0  0  0  0  0  0  0  0  0  0
    5.9826   -1.9579    1.1675 C   0  0  0  0  0  0  0  0  0  0  0  0
   -2.5694    0.5015    1.4703 H   0  0  0  0  0  0  0  0  0  0  0  0
   -2.6274    1.6580   -1.3814 H   0  0  0  0  0  0  0  0  0  0  0  0
   -1.2433    0.9033   -0.6144 H   0  0  0  0  0  0  0  0  0  0  0  0
   -4.9234    1.0017    1.6092 H   0  0  0  0  0  0  0  0  0  0  0  0
   -4.9414    1.6706   -0.0172 H   0  0  0  0  0  0  0  0  0  0  0  0
   -4.7985    3.5139    1.5685 H   0  0  0  0  0  0  0  0  0  0  0  0
   -3.4297    2.7745    2.3963 H   0  0  0  0  0  0  0  0  0  0  0  0
   -3.4646    3.8672   -0.4670 H   0  0  0  0  0  0  0  0  0  0  0  0
   -2.6405    4.5542    0.9382 H   0  0  0  0  0  0  0  0  0  0  0  0
   -0.7484    4.5555   -0.3692 H   0  0  0  0  0  0  0  0  0  0  0  0
   -1.1783    3.5340   -1.7170 H   0  0  0  0  0  0  0  0  0  0  0  0
   -4.3591   -0.5415   -0.6260 H   0  0  0  0  0  0  0  0  0  0  0  0
    1.0033    3.8376    1.3191 H   0  0  0  0  0  0  0  0  0  0  0  0
    0.4344    1.9007   -2.4913 H   0  0  0  0  0  0  0  0  0  0  0  0
   -0.9891   -0.7649    0.9040 H   0  0  0  0  0  0  0  0  0  0  0  0
   -4.1363   -2.8017   -1.2907 H   0  0  0  0  0  0  0  0  0  0  0  0
    3.2730    2.9020    1.4550 H   0  0  0  0  0  0  0  0  0  0  0  0
    2.7028    0.9659   -2.3551 H   0  0  0  0  0  0  0  0  0  0  0  0
    4.9454    1.2189   -1.3681 H   0  0  0  0  0  0  0  0  0  0  0  0
    5.1736    2.0037    0.1769 H   0  0  0  0  0  0  0  0  0  0  0  0
   -2.7270   -4.8400   -1.4280 H   0  0  0  0  0  0  0  0  0  0  0  0
    3.9151   -0.7736   -0.2252 H   0  0  0  0  0  0  0  0  0  0  0  0
    4.1034    0.0202    1.3344 H   0  0  0  0  0  0  0  0  0  0  0  0
    6.3945   -0.7415   -0.5541 H   0  0  0  0  0  0  0  0  0  0  0  0
    6.5962    0.0902    0.9896 H   0  0  0  0  0  0  0  0  0  0  0  0
    1.4102   -2.5725    1.2887 H   0  0  0  0  0  0  0  0  0  0  0  0
   -0.1059   -5.7836   -0.6067 H   0  0  0  0  0  0  0  0  0  0  0  0
    5.5879   -1.8615    2.1840 H   0  0  0  0  0  0  0  0  0  0  0  0
    7.0072   -2.3365    1.2353 H   0  0  0  0  0  0  0  0  0  0  0  0
    5.3803   -2.7002    0.6339 H   0  0  0  0  0  0  0  0  0  0  0  0
  1  6  1  0  0  0  0
  1  9  1  0  0  0  0
  1 10  1  0  0  0  0
  2  5  1  0  0  0  0
  2 12  1  0  0  0  0
  2 39  1  0  0  0  0
  3  4  1  0  0  0  0
  3 22  1  0  0  0  0
  3 54  1  0  0  0  0
  4 26  2  0  0  0  0
  5  6  1  0  0  0  0
  5  7  1  0  0  0  0
  5 28  1  0  0  0  0
  6 29  1  0  0  0  0
  6 30  1  0  0  0  0
  7  8  1  0  0  0  0
  7 31  1  0  0  0  0
  7 32  1  0  0  0  0
  8  9  1  0  0  0  0
  8 33  1  0  0  0  0
  8 34  1  0  0  0  0
  9 35  1  0  0  0  0
  9 36  1  0  0  0  0
 10 11  1  0  0  0  0
 10 37  1  0  0  0  0
 10 38  1  0  0  0  0
 11 13  2  0  0  0  0
 11 14  1  0  0  0  0
 12 15  2  0  0  0  0
 12 16  1  0  0  0  0
 13 18  1  0  0  0  0
 13 40  1  0  0  0  0
 14 19  2  0  0  0  0
 14 41  1  0  0  0  0
 15 21  1  0  0  0  0
 15 42  1  0  0  0  0
 16 23  2  0  0  0  0
 16 43  1  0  0  0  0
 17 18  2  0  0  0  0
 17 19  1  0  0  0  0
 17 20  1  0  0  0  0
 18 44  1  0  0  0  0
 19 45  1  0  0  0  0
 20 24  1  0  0  0  0
 20 46  1  0  0  0  0
 20 47  1  0  0  0  0
 21 22  2  0  0  0  0
 21 26  1  0  0  0  0
 22 23  1  0  0  0  0
 23 48  1  0  0  0  0
 24 25  1  0  0  0  0
 24 49  1  0  0  0  0
 24 50  1  0  0  0  0
 25 27  1  0  0  0  0
 25 51  1  0  0  0  0
 25 52  1  0  0  0  0
 26 53  1  0  0  0  0
 27 55  1  0  0  0  0
 27 56  1  0  0  0  0
 27 57  1  0  0  0  0
M  END
> <PUBCHEM_COMPOUND_CID>
57446032

> <PUBCHEM_CONFORMER_RMSD>
1.2

> <PUBCHEM_CONFORMER_DIVERSEORDER>
1
53
79
43
104
38
57
80
63
66
39
71
82
30
33
46
75
88
93
41
2
54
47
61
74
56
91
110
3
95
44
67
25
92
98
87
89
4
14
24
28
101
34
81
84
22
37
96
65
18
42
16
105
90
106
5
108
60
62
23
55
78
52
15
100
45
29
7
8
109
9
73
48
77
31
70
68
11
72
36
103
35
10
86
21
27
59
64
13
17
26
12
32
107
19
83
85
51
49
76
102
20
97
99
40
94
6
50
58
69

> <PUBCHEM_MMFF94_PARTIAL_CHARGES>
31
1 -0.81
10 0.41
11 -0.14
12 0.1
13 -0.15
14 -0.15
15 -0.15
16 -0.15
17 -0.14
18 -0.15
19 -0.15
2 -0.87
20 0.14
22 -0.15
23 -0.15
26 0.14
3 0.3
39 0.4
4 -0.71
40 0.15
41 0.15
42 0.15
43 0.15
44 0.15
45 0.15
48 0.15
5 0.37
53 0.15
54 0.27
6 0.27
9 0.27

> <PUBCHEM_EFFECTIVE_ROTOR_COUNT>
8.2

> <PUBCHEM_PHARMACOPHORE_FEATURES>
10
1 1 cation
1 2 cation
1 2 donor
1 27 hydrophobe
1 3 donor
1 4 acceptor
5 3 4 21 22 26 rings
6 1 5 6 7 8 9 rings
6 11 13 14 17 18 19 rings
6 12 15 16 21 22 23 rings

> <PUBCHEM_HEAVY_ATOM_COUNT>
27

> <PUBCHEM_ATOM_DEF_STEREO_COUNT>
0

> <PUBCHEM_ATOM_UDEF_STEREO_COUNT>
1

> <PUBCHEM_BOND_DEF_STEREO_COUNT>
0

> <PUBCHEM_BOND_UDEF_STEREO_COUNT>
0

> <PUBCHEM_ISOTOPIC_ATOM_COUNT>
0

> <PUBCHEM_COMPONENT_COUNT>
1

> <PUBCHEM_CACTVS_TAUTO_COUNT>
2

> <PUBCHEM_CONFORMER_ID>
036C8E9000000001

> <PUBCHEM_MMFF94_ENERGY>
57.442

> <PUBCHEM_FEATURE_SELFOVERLAP>
50.837

> <PUBCHEM_SHAPE_FINGERPRINT>
10940486 97 18190473825151410588
11513181 2 17840014148635709511
12553582 1 17258238769830639285
12788726 201 17979093887178536245
13122387 1 18192430758089470526
14363568 33 17619936975225307939
14659021 117 18123184864608640672
14866123 147 18411133606901123290
15250474 111 18336546127197797524
15297060 5 18129377095237118370
15326923 133 17408229280369434466
15403338 16 16662882523424493601
15721738 15 17257906712681855526
16120349 306 18337950099939556776
20764821 26 18265049129318258022
20775530 9 17837783583092485484
21344244 246 18120641445749115693
229767 44 18337388245498136162
23516275 137 17830766178478839192
23559900 14 16177344180695284437
3729539 64 17832695052502907351
3882209 13 17478010180614595734
463206 1 17615689973902549738
5265222 85 18263384524654271564
6287921 2 17764584318201819129
653340 110 18268699671305123080
9543594 6 18122066408191195854

> <PUBCHEM_SHAPE_MULTIPOLES>
535.72
9.6
7.58
1.16
13.26
5.74
0.15
-0.14
-2.82
-3.95
0.08
0.13
-0.4
-2.77

> <PUBCHEM_SHAPE_SELFOVERLAP>
1142.575

> <PUBCHEM_SHAPE_VOLUME>
298

> <PUBCHEM_COORDINATE_TYPE>
2
5
10

$$$$
57446033
  -OEChem-05102415113D

 55 58  0     1  0  0  0  0  0999 V2000
    4.6516    0.0099   -0.0835 O   0  0  0  0  0  0  0  0  0  0  0  0
   -0.8804   -3.1025   -0.1013 N   0  0  2  0  0  0  0  0  0  0  0  0
   -3.4304   -0.3941    0.2888 N   0  0  0  0  0  0  0  0  0  0  0  0
   -1.4121    4.6924    0.0288 N   0  0  0  0  0  0  0  0  0  0  0  0
   -0.2933    4.5618   -0.7033 N   0  0  0  0  0  0  0  0  0  0  0  0
   -2.7453   -1.4917   -0.3619 C   0  0  2  0  0  0  0  0  0  0  0  0
   -3.7247   -2.6428   -0.5943 C   0  0  0  0  0  0  0  0  0  0  0  0
   -1.5606   -1.9465    0.5009 C   0  0  0  0  0  0  0  0  0  0  0  0
   -2.9920   -3.8636   -1.1398 C   0  0  0  0  0  0  0  0  0  0  0  0
   -1.8005   -4.2375   -0.2573 C   0  0  0  0  0  0  0  0  0  0  0  0
    0.2787   -3.4904    0.7023 C   0  0  0  0  0  0  0  0  0  0  0  0
    1.4430   -2.5591    0.4929 C   0  0  0  0  0  0  0  0  0  0  0  0
   -2.9774    0.9127    0.2634 C   0  0  0  0  0  0  0  0  0  0  0  0
   -1.7946    1.2172   -0.4220 C   0  0  0  0  0  0  0  0  0  0  0  0
    1.7536   -1.6032    1.4601 C   0  0  0  0  0  0  0  0  0  0  0  0
    2.2108   -2.6517   -0.6680 C   0  0  0  0  0  0  0  0  0  0  0  0
   -3.7036    1.9081    0.9197 C   0  0  0  0  0  0  0  0  0  0  0  0
   -1.3514    2.5503   -0.4362 C   0  0  0  0  0  0  0  0  0  0  0  0
   -2.0938    3.5219    0.2256 C   0  0  0  0  0  0  0  0  0  0  0  0
   -3.2753    3.2396    0.9146 C   0  0  0  0  0  0  0  0  0  0  0  0
    2.8320   -0.7401    1.2666 C   0  0  0  0  0  0  0  0  0  0  0  0
    3.2893   -1.7886   -0.8615 C   0  0  0  0  0  0  0  0  0  0  0  0
    3.5999   -0.8328    0.1058 C   0  0  0  0  0  0  0  0  0  0  0  0
   -0.2596    3.2572   -0.9843 C   0  0  0  0  0  0  0  0  0  0  0  0
    4.3665    1.4079   -0.1117 C   0  0  0  0  0  0  0  0  0  0  0  0
    5.1104    2.0935    1.0241 C   0  0  0  0  0  0  0  0  0  0  0  0
    4.7593    1.9720   -1.4685 C   0  0  0  0  0  0  0  0  0  0  0  0
   -2.3940   -1.1943   -1.3588 H   0  0  0  0  0  0  0  0  0  0  0  0
   -4.5149   -2.3378   -1.2908 H   0  0  0  0  0  0  0  0  0  0  0  0
   -4.2242   -2.9119    0.3459 H   0  0  0  0  0  0  0  0  0  0  0  0
   -0.8589   -1.1164    0.6170 H   0  0  0  0  0  0  0  0  0  0  0  0
   -1.9138   -2.1927    1.5128 H   0  0  0  0  0  0  0  0  0  0  0  0
   -3.6841   -4.7107   -1.2050 H   0  0  0  0  0  0  0  0  0  0  0  0
   -2.6440   -3.6561   -2.1597 H   0  0  0  0  0  0  0  0  0  0  0  0
   -1.2802   -5.0777   -0.7331 H   0  0  0  0  0  0  0  0  0  0  0  0
   -2.1591   -4.5864    0.7201 H   0  0  0  0  0  0  0  0  0  0  0  0
    0.6262   -4.4923    0.4125 H   0  0  0  0  0  0  0  0  0  0  0  0
    0.0260   -3.5724    1.7683 H   0  0  0  0  0  0  0  0  0  0  0  0
   -4.2461   -0.6003    0.8553 H   0  0  0  0  0  0  0  0  0  0  0  0
   -1.1977    0.4869   -0.9538 H   0  0  0  0  0  0  0  0  0  0  0  0
    1.1648   -1.5213    2.3700 H   0  0  0  0  0  0  0  0  0  0  0  0
    1.9785   -3.3918   -1.4292 H   0  0  0  0  0  0  0  0  0  0  0  0
   -4.6214    1.6595    1.4489 H   0  0  0  0  0  0  0  0  0  0  0  0
   -3.8379    4.0142    1.4237 H   0  0  0  0  0  0  0  0  0  0  0  0
    3.0646   -0.0084    2.0347 H   0  0  0  0  0  0  0  0  0  0  0  0
    3.8834   -1.8645   -1.7681 H   0  0  0  0  0  0  0  0  0  0  0  0
    0.5595    2.8736   -1.5762 H   0  0  0  0  0  0  0  0  0  0  0  0
   -1.6569    5.6147    0.3670 H   0  0  0  0  0  0  0  0  0  0  0  0
    3.2921    1.5969    0.0190 H   0  0  0  0  0  0  0  0  0  0  0  0
    6.1905    1.9324    0.9354 H   0  0  0  0  0  0  0  0  0  0  0  0
    4.9178    3.1707    1.0323 H   0  0  0  0  0  0  0  0  0  0  0  0
    4.8113    1.6804    1.9927 H   0  0  0  0  0  0  0  0  0  0  0  0
    5.8234    1.8045   -1.6684 H   0  0  0  0  0  0  0  0  0  0  0  0
    4.5557    3.0454   -1.5289 H   0  0  0  0  0  0  0  0  0  0  0  0
    4.2059    1.4664   -2.2673 H   0  0  0  0  0  0  0  0  0  0  0  0
  1 23  1  0  0  0  0
  1 25  1  0  0  0  0
  2  8  1  0  0  0  0
  2 10  1  0  0  0  0
  2 11  1  0  0  0  0
  3  6  1  0  0  0  0
  3 13  1  0  0  0  0
  3 39  1  0  0  0  0
  4  5  1  0  0  0  0
  4 19  1  0  0  0  0
  4 48  1  0  0  0  0
  5 24  2  0  0  0  0
  6  7  1  0  0  0  0
  6  8  1  0  0  0  0
  6 28  1  0  0  0  0
  7  9  1  0  0  0  0
  7 29  1  0  0  0  0
  7 30  1  0  0  0  0
  8 31  1  0  0  0  0
  8 32  1  0  0  0  0
  9 10  1  0  0  0  0
  9 33  1  0  0  0  0
  9 34  1  0  0  0  0
 10 35  1  0  0  0  0
 10 36  1  0  0  0  0
 11 12  1  0  0  0  0
 11 37  1  0  0  0  0
 11 38  1  0  0  0  0
 12 15  2  0  0  0  0
 12 16  1  0  0  0  0
 13 14  2  0  0  0  0
 13 17  1  0  0  0  0
 14 18  1  0  0  0  0
 14 40  1  0  0  0  0
 15 21  1  0  0  0  0
 15 41  1  0  0  0  0
 16 22  2  0  0  0  0
 16 42  1  0  0  0  0
 17 20  2  0  0  0  0
 17 43  1  0  0  0  0
 18 19  2  0  0  0  0
 18 24  1  0  0  0  0
 19 20  1  0  0  0  0
 20 44  1  0  0  0  0
 21 23  2  0  0  0  0
 21 45  1  0  0  0  0
 22 23  1  0  0  0  0
 22 46  1  0  0  0  0
 24 47  1  0  0  0  0
 25 26  1  0  0  0  0
 25 27  1  0  0  0  0
 25 49  1  0  0  0  0
 26 50  1  0  0  0  0
 26 51  1  0  0  0  0
 26 52  1  0  0  0  0
 27 53  1  0  0  0  0
 27 54  1  0  0  0  0
 27 55  1  0  0  0  0
M  END
> <PUBCHEM_COMPOUND_CID>
57446033

> <PUBCHEM_CONFORMER_RMSD>
1

> <PUBCHEM_CONFORMER_DIVERSEORDER>
1
74
132
94
18
70
78
119
93
9
130
104
125
29
26
105
59
72
103
127
53
85
106
91
23
48
25
136
146
30
134
124
87
82
114
19
84
66
67
80
135
144
109
58
65
96
7
108
143
120
107
63
123
46
137
50
131
52
35
40
41
133
92
33
126
139
81
68
51
98
34
44
5
121
118
62
79
60
117
101
97
102
129
17
38
54
37
36
47
24
142
138
140
76
14
8
141
55
11
111
10
28
21
15
100
42
2
95
110
61
75
90
112
115
73
128
83
43
27
3
122
22
20
64
71
145
13
77
45
86
69
99
57
88
4
31
6
49
89
12
116
56
39
113
16
32

> <PUBCHEM_MMFF94_PARTIAL_CHARGES>
32
1 -0.36
10 0.27
11 0.41
12 -0.14
13 0.1
14 -0.15
15 -0.15
16 -0.15
17 -0.15
19 -0.15
2 -0.81
20 -0.15
21 -0.15
22 -0.15
23 0.08
24 0.14
25 0.28
3 -0.87
39 0.4
4 0.3
40 0.15
41 0.15
42 0.15
43 0.15
44 0.15
45 0.15
46 0.15
47 0.15
48 0.27
5 -0.71
6 0.37
8 0.27

> <PUBCHEM_EFFECTIVE_ROTOR_COUNT>
7.2

> <PUBCHEM_PHARMACOPHORE_FEATURES>
11
1 1 acceptor
1 2 cation
1 3 cation
1 3 donor
1 4 donor
1 5 acceptor
3 25 26 27 hydrophobe
5 4 5 18 19 24 rings
6 12 15 16 21 22 23 rings
6 13 14 17 18 19 20 rings
6 2 6 7 8 9 10 rings

> <PUBCHEM_HEAVY_ATOM_COUNT>
27

> <PUBCHEM_ATOM_DEF_STEREO_COUNT>
0

> <PUBCHEM_ATOM_UDEF_STEREO_COUNT>
1

> <PUBCHEM_BOND_DEF_STEREO_COUNT>
0

> <PUBCHEM_BOND_UDEF_STEREO_COUNT>
0

> <PUBCHEM_ISOTOPIC_ATOM_COUNT>
0

> <PUBCHEM_COMPONENT_COUNT>
1

> <PUBCHEM_CACTVS_TAUTO_COUNT>
2

> <PUBCHEM_CONFORMER_ID>
036C8E9100000001

> <PUBCHEM_MMFF94_ENERGY>
72.2357

> <PUBCHEM_FEATURE_SELFOVERLAP>
55.912

> <PUBCHEM_SHAPE_FINGERPRINT>
10498660 4 18408595951001732807
10871710 139 18410578417922054811
1100329 8 18121787398493648699
11211813 163 18264512645585902332
12100795 323 17758676650778991229
12788726 201 18337664329816552451
12925494 130 16681473985114203041
12978246 48 18120089477330360984
13122387 1 18048031870275629480
1361 2 18265614282568991353
13615921 28 17979070818888194967
138480 1 16393805433633486671
14363568 33 17183355447720223795
14790565 3 18197221347938436289
150020 26 17042037962606837025
151778 21 17619634579262432129
15322535 138 18265602205036506960
15351339 4 17326331529144265768
15927050 60 16322876634464255919
15961568 22 18196086875265866526
17627616 140 16679500997623474572
19611394 137 17538289827254652618
19930381 70 16608855184736436114
20764821 26 17831592237696717852
23559900 14 16608570862707701869
325973 47 17546166767072769536
4573279 73 17619046358508607533
463206 1 18047758388306773301
532947 4 17185872238399445239
5776283 40 18051439309051478670
6036956 94 18044098083912668341
6287921 2 18191597354325151036
6371009 1 17977643334936203291
653340 110 18340760550850834904
6608658 132 18196652024095117222
6700243 42 17625576692830247358
7808743 9 18411418367591158162

> <PUBCHEM_SHAPE_MULTIPOLES>
529.85
8.96
7.38
1.17
9.72
2.74
0.04
2.32
-0.15
-5.68
-0.99
0.58
0.02
-1.54

> <PUBCHEM_SHAPE_SELFOVERLAP>
1136.49

> <PUBCHEM_SHAPE_VOLUME>
295.1

> <PUBCHEM_COORDINATE_TYPE>
2
5
10

$$$$
57446034
  -OEChem-05102415113D

 51 54  0     1  0  0  0  0  0999 V2000
   -2.0128    1.7854    0.0927 N   0  0  2  0  0  0  0  0  0  0  0  0
    1.6721    2.4149    0.2151 N   0  0  0  0  0  0  0  0  0  0  0  0
    4.7673   -2.0944   -0.1000 N   0  0  0  0  0  0  0  0  0  0  0  0
    3.9919   -2.9767   -0.7520 N   0  0  0  0  0  0  0  0  0  0  0  0
    0.3381    2.4326   -0.3484 C   0  0  1  0  0  0  0  0  0  0  0  0
   -0.6363    1.7296    0.6061 C   0  0  0  0  0  0  0  0  0  0  0  0
   -0.0933    3.8776   -0.6017 C   0  0  0  0  0  0  0  0  0  0  0  0
   -1.5489    3.9276   -1.0527 C   0  0  0  0  0  0  0  0  0  0  0  0
   -2.4584    3.1747   -0.0811 C   0  0  0  0  0  0  0  0  0  0  0  0
   -2.9214    1.0646    0.9841 C   0  0  0  0  0  0  0  0  0  0  0  0
   -2.8044   -0.4271    0.8171 C   0  0  0  0  0  0  0  0  0  0  0  0
    2.5062    1.3123    0.1712 C   0  0  0  0  0  0  0  0  0  0  0  0
   -3.3750   -1.0758   -0.2780 C   0  0  0  0  0  0  0  0  0  0  0  0
   -2.1124   -1.1617    1.7799 C   0  0  0  0  0  0  0  0  0  0  0  0
    2.0603    0.1369   -0.4463 C   0  0  0  0  0  0  0  0  0  0  0  0
    3.7784    1.3857    0.7414 C   0  0  0  0  0  0  0  0  0  0  0  0
   -3.2534   -2.4591   -0.4103 C   0  0  0  0  0  0  0  0  0  0  0  0
    2.9225   -0.9717   -0.4806 C   0  0  0  0  0  0  0  0  0  0  0  0
   -4.1166   -0.2882   -1.3112 C   0  0  0  0  0  0  0  0  0  0  0  0
   -1.9908   -2.5449    1.6478 C   0  0  0  0  0  0  0  0  0  0  0  0
   -2.5614   -3.1937    0.5526 C   0  0  0  0  0  0  0  0  0  0  0  0
    4.1841   -0.8715    0.0949 C   0  0  0  0  0  0  0  0  0  0  0  0
    4.6481    0.2906    0.7151 C   0  0  0  0  0  0  0  0  0  0  0  0
   -3.8544   -3.1776   -1.5738 C   0  0  0  0  0  0  0  0  0  0  0  0
    2.8703   -2.2901   -0.9819 C   0  0  0  0  0  0  0  0  0  0  0  0
    0.3244    1.9417   -1.3305 H   0  0  0  0  0  0  0  0  0  0  0  0
   -0.3257    0.6898    0.7364 H   0  0  0  0  0  0  0  0  0  0  0  0
   -0.5775    2.1942    1.6011 H   0  0  0  0  0  0  0  0  0  0  0  0
    0.5499    4.3415   -1.3592 H   0  0  0  0  0  0  0  0  0  0  0  0
    0.0218    4.4740    0.3131 H   0  0  0  0  0  0  0  0  0  0  0  0
   -1.8752    4.9708   -1.1319 H   0  0  0  0  0  0  0  0  0  0  0  0
   -1.6370    3.4883   -2.0546 H   0  0  0  0  0  0  0  0  0  0  0  0
   -3.4758    3.1918   -0.4908 H   0  0  0  0  0  0  0  0  0  0  0  0
   -2.4853    3.6996    0.8830 H   0  0  0  0  0  0  0  0  0  0  0  0
   -3.9659    1.3455    0.7971 H   0  0  0  0  0  0  0  0  0  0  0  0
   -2.7542    1.3499    2.0326 H   0  0  0  0  0  0  0  0  0  0  0  0
    1.9890    3.2266    0.7343 H   0  0  0  0  0  0  0  0  0  0  0  0
   -1.6619   -0.6714    2.6389 H   0  0  0  0  0  0  0  0  0  0  0  0
    1.0882    0.0281   -0.9107 H   0  0  0  0  0  0  0  0  0  0  0  0
    4.1140    2.3045    1.2183 H   0  0  0  0  0  0  0  0  0  0  0  0
   -4.9461    0.2616   -0.8543 H   0  0  0  0  0  0  0  0  0  0  0  0
   -3.4450    0.4169   -1.8113 H   0  0  0  0  0  0  0  0  0  0  0  0
   -4.5665   -0.8901   -2.1038 H   0  0  0  0  0  0  0  0  0  0  0  0
   -1.4515   -3.1167    2.3973 H   0  0  0  0  0  0  0  0  0  0  0  0
   -2.4567   -4.2719    0.4654 H   0  0  0  0  0  0  0  0  0  0  0  0
    5.6365    0.3456    1.1574 H   0  0  0  0  0  0  0  0  0  0  0  0
   -4.9433   -3.0633   -1.5819 H   0  0  0  0  0  0  0  0  0  0  0  0
   -3.4311   -2.8159   -2.5167 H   0  0  0  0  0  0  0  0  0  0  0  0
   -3.6500   -4.2535   -1.5297 H   0  0  0  0  0  0  0  0  0  0  0  0
    2.0600   -2.7779   -1.5051 H   0  0  0  0  0  0  0  0  0  0  0  0
    5.6916   -2.3914    0.1872 H   0  0  0  0  0  0  0  0  0  0  0  0
  1  6  1  0  0  0  0
  1  9  1  0  0  0  0
  1 10  1  0  0  0  0
  2  5  1  0  0  0  0
  2 12  1  0  0  0  0
  2 37  1  0  0  0  0
  3  4  1  0  0  0  0
  3 22  1  0  0  0  0
  3 51  1  0  0  0  0
  4 25  2  0  0  0  0
  5  6  1  0  0  0  0
  5  7  1  0  0  0  0
  5 26  1  0  0  0  0
  6 27  1  0  0  0  0
  6 28  1  0  0  0  0
  7  8  1  0  0  0  0
  7 29  1  0  0  0  0
  7 30  1  0  0  0  0
  8  9  1  0  0  0  0
  8 31  1  0  0  0  0
  8 32  1  0  0  0  0
  9 33  1  0  0  0  0
  9 34  1  0  0  0  0
 10 11  1  0  0  0  0
 10 35  1  0  0  0  0
 10 36  1  0  0  0  0
 11 13  1  0  0  0  0
 11 14  2  0  0  0  0
 12 15  2  0  0  0  0
 12 16  1  0  0  0  0
 13 17  2  0  0  0  0
 13 19  1  0  0  0  0
 14 20  1  0  0  0  0
 14 38  1  0  0  0  0
 15 18  1  0  0  0  0
 15 39  1  0  0  0  0
 16 23  2  0  0  0  0
 16 40  1  0  0  0  0
 17 21  1  0  0  0  0
 17 24  1  0  0  0  0
 18 22  2  0  0  0  0
 18 25  1  0  0  0  0
 19 41  1  0  0  0  0
 19 42  1  0  0  0  0
 19 43  1  0  0  0  0
 20 21  2  0  0  0  0
 20 44  1  0  0  0  0
 21 45  1  0  0  0  0
 22 23  1  0  0  0  0
 23 46  1  0  0  0  0
 24 47  1  0  0  0  0
 24 48  1  0  0  0  0
 24 49  1  0  0  0  0
 25 50  1  0  0  0  0
M  END
> <PUBCHEM_COMPOUND_CID>
57446034

> <PUBCHEM_CONFORMER_RMSD>
0.8

> <PUBCHEM_CONFORMER_DIVERSEORDER>
1
239
210
156
229
168
47
9
231
91
118
248
247
235
166
54
56
255
253
211
63
149
251
249
252
49
11
139
241
141
193
163
43
250
214
65
218
28
178
123
25
24
110
148
159
258
143
10
68
188
112
245
165
84
194
222
81
242
201
80
133
200
215
195
107
204
14
104
58
41
74
121
162
192
228
45
129
172
147
114
220
59
230
35
173
243
217
154
203
175
85
97
131
108
181
132
125
151
185
73
164
240
6
186
57
213
27
78
111
237
158
246
232
50
29
221
46
224
122
126
160
207
140
75
8
66
144
157
3
142
67
238
30
12
146
190
227
191
198
15
226
22
55
176
138
219
152
89
170
44
109
225
19
137
60
244
180
184
182
128
106
105
150
216
209
70
99
16
223
153
113
42
183
83
2
196
103
136
77
82
102
40
179
5
31
212
96
48
127
199
236
20
174
69
256
189
32
234
87
71
101
98
90
161
115
187
233
124
37
18
34
208
53
134
36
86
130
93
92
119
61
145
76
169
205
79
167
33
254
23
72
117
206
21
17
202
94
52
62
155
13
88
135
116
51
120
64
177
257
197
100
39
26
4
7
171
38
95

> <PUBCHEM_MMFF94_PARTIAL_CHARGES>
31
1 -0.81
10 0.41
11 -0.14
12 0.1
13 -0.14
14 -0.15
15 -0.15
16 -0.15
17 -0.14
19 0.14
2 -0.87
20 -0.15
21 -0.15
22 -0.15
23 -0.15
24 0.14
25 0.14
3 0.3
37 0.4
38 0.15
39 0.15
4 -0.71
40 0.15
44 0.15
45 0.15
46 0.15
5 0.37
50 0.15
51 0.27
6 0.27
9 0.27

> <PUBCHEM_EFFECTIVE_ROTOR_COUNT>
5.2

> <PUBCHEM_PHARMACOPHORE_FEATURES>
9
1 1 cation
1 2 cation
1 2 donor
1 3 donor
1 4 acceptor
5 3 4 18 22 25 rings
6 1 5 6 7 8 9 rings
6 11 13 14 17 20 21 rings
6 12 15 16 18 22 23 rings

> <PUBCHEM_HEAVY_ATOM_COUNT>
25

> <PUBCHEM_ATOM_DEF_STEREO_COUNT>
0

> <PUBCHEM_ATOM_UDEF_STEREO_COUNT>
1

> <PUBCHEM_BOND_DEF_STEREO_COUNT>
0

> <PUBCHEM_BOND_UDEF_STEREO_COUNT>
0

> <PUBCHEM_ISOTOPIC_ATOM_COUNT>
0

> <PUBCHEM_COMPONENT_COUNT>
1

> <PUBCHEM_CACTVS_TAUTO_COUNT>
2

> <PUBCHEM_CONFORMER_ID>
036C8E9200000001

> <PUBCHEM_MMFF94_ENERGY>
66.1944

> <PUBCHEM_FEATURE_SELFOVERLAP>
45.763

> <PUBCHEM_SHAPE_FINGERPRINT>
10074138 170 16616138307590108176
10483366 6 18193539092445392373
10764073 3 17825703078152678219
107951 10 16882469259189052945
11135926 11 17974574902868217309
11136131 41 18336253657621572770
11552529 35 18059860558127506096
12156800 1 16548269453046917039
12422481 6 18125191306363054673
12553582 1 18191606317526187257
12788726 201 18261945250404629633
13122387 1 17040645985307912938
13402501 40 18124041134878577100
14251757 5 18049187500283829126
1454969 45 18122902294927095672
14659021 117 18336252466955327720
15352361 1 18411416258308359511
19141452 34 18342181029484552857
19315092 285 16842748624341230163
19930381 70 17977949317191847603
20775530 9 18339650030715106866
21133410 171 17543572769977785899
21344244 181 18052517908335959781
21987440 362 15658795345118431965
22113638 7 17837767099092821886
23559900 14 18266732665739825160
23572383 38 18265597956817550314
238 59 17255672522565541679
26353 1 17604147137715643149
3298306 158 17253149727216162997
3459 83 18271518806555572727
4280585 95 18189881171214050048
445580 102 17687192301599549139
469060 322 17626347433005496892
508706 21 18338237051105272026
5309563 4 17905617953158510723
550186 72 18335142050918557084
57527585 103 17750814322486600659
613672 6 18263917920230405394
9709674 26 18410856529981499336

> <PUBCHEM_SHAPE_MULTIPOLES>
494.56
9.32
5.32
1.32
6.32
2.5
0.14
-7.34
-0.83
-2.1
-1.44
-1.1
-0.62
0.69

> <PUBCHEM_SHAPE_SELFOVERLAP>
1072.733

> <PUBCHEM_SHAPE_VOLUME>
270.7

> <PUBCHEM_COORDINATE_TYPE>
2
5
10

$$$$
25008494
  -OEChem-05102415113D

 52 55  0     1  0  0  0  0  0999 V2000
   -7.1575    1.7778   -0.8294 S   0  0  0  0  0  0  0  0  0  0  0  0
   -1.1075   -1.0566   -0.0286 N   0  0  1  0  0  0  0  0  0  0  0  0
    2.5434   -1.3312    0.7145 N   0  0  0  0  0  0  0  0  0  0  0  0
    7.2865    1.3590    0.1860 N   0  0  0  0  0  0  0  0  0  0  0  0
    7.0001    2.3607   -0.6620 N   0  0  0  0  0  0  0  0  0  0  0  0
    1.3625   -0.8868    0.0056 C   0  0  1  0  0  0  0  0  0  0  0  0
    1.4311   -1.3472   -1.4503 C   0  0  0  0  0  0  0  0  0  0  0  0
    0.1113   -1.4381    0.7000 C   0  0  0  0  0  0  0  0  0  0  0  0
    0.1283   -1.0195   -2.1718 C   0  0  0  0  0  0  0  0  0  0  0  0
   -1.0813   -1.5613   -1.4084 C   0  0  0  0  0  0  0  0  0  0  0  0
   -2.2961   -1.5430    0.6716 C   0  0  0  0  0  0  0  0  0  0  0  0
   -3.4996   -0.7216    0.3007 C   0  0  0  0  0  0  0  0  0  0  0  0
    3.7711   -0.7001    0.6260 C   0  0  0  0  0  0  0  0  0  0  0  0
    3.9059    0.4321   -0.1873 C   0  0  0  0  0  0  0  0  0  0  0  0
    4.8568   -1.1989    1.3481 C   0  0  0  0  0  0  0  0  0  0  0  0
   -3.6705    0.5510    0.8459 C   0  0  0  0  0  0  0  0  0  0  0  0
   -4.4448   -1.2318   -0.5891 C   0  0  0  0  0  0  0  0  0  0  0  0
    5.1610    1.0588   -0.2623 C   0  0  0  0  0  0  0  0  0  0  0  0
    6.2254    0.5412    0.4672 C   0  0  0  0  0  0  0  0  0  0  0  0
    6.1124   -0.5861    1.2839 C   0  0  0  0  0  0  0  0  0  0  0  0
   -4.7864    1.3132    0.5012 C   0  0  0  0  0  0  0  0  0  0  0  0
   -5.5610   -0.4694   -0.9340 C   0  0  0  0  0  0  0  0  0  0  0  0
   -5.7318    0.8031   -0.3886 C   0  0  0  0  0  0  0  0  0  0  0  0
    5.7063    2.1748   -0.9328 C   0  0  0  0  0  0  0  0  0  0  0  0
   -7.9480    2.0264    0.7855 C   0  0  0  0  0  0  0  0  0  0  0  0
   -8.3178    0.6937    1.4084 C   0  0  0  0  0  0  0  0  0  0  0  0
    1.2707    0.2067    0.0497 H   0  0  0  0  0  0  0  0  0  0  0  0
    2.2656   -0.8893   -1.9908 H   0  0  0  0  0  0  0  0  0  0  0  0
    1.6007   -2.4318   -1.4902 H   0  0  0  0  0  0  0  0  0  0  0  0
    0.1770   -2.5312    0.7952 H   0  0  0  0  0  0  0  0  0  0  0  0
    0.0767   -1.0331    1.7201 H   0  0  0  0  0  0  0  0  0  0  0  0
    0.0362    0.0682   -2.2850 H   0  0  0  0  0  0  0  0  0  0  0  0
    0.1486   -1.4455   -3.1813 H   0  0  0  0  0  0  0  0  0  0  0  0
   -1.0604   -2.6592   -1.4243 H   0  0  0  0  0  0  0  0  0  0  0  0
   -1.9749   -1.2451   -1.9571 H   0  0  0  0  0  0  0  0  0  0  0  0
   -2.1735   -1.4455    1.7596 H   0  0  0  0  0  0  0  0  0  0  0  0
   -2.4701   -2.6133    0.4962 H   0  0  0  0  0  0  0  0  0  0  0  0
    2.4925   -2.1925    1.2476 H   0  0  0  0  0  0  0  0  0  0  0  0
    3.0961    0.8638   -0.7619 H   0  0  0  0  0  0  0  0  0  0  0  0
    4.7398   -2.0792    1.9771 H   0  0  0  0  0  0  0  0  0  0  0  0
   -2.9402    0.9602    1.5390 H   0  0  0  0  0  0  0  0  0  0  0  0
   -4.3243   -2.2219   -1.0208 H   0  0  0  0  0  0  0  0  0  0  0  0
    6.9568   -0.9719    1.8441 H   0  0  0  0  0  0  0  0  0  0  0  0
   -4.8942    2.3052    0.9326 H   0  0  0  0  0  0  0  0  0  0  0  0
   -6.2874   -0.8838   -1.6286 H   0  0  0  0  0  0  0  0  0  0  0  0
    5.2126    2.8598   -1.6076 H   0  0  0  0  0  0  0  0  0  0  0  0
    8.2323    1.2883    0.5400 H   0  0  0  0  0  0  0  0  0  0  0  0
   -8.8522    2.6232    0.6286 H   0  0  0  0  0  0  0  0  0  0  0  0
   -7.2904    2.5958    1.4492 H   0  0  0  0  0  0  0  0  0  0  0  0
   -8.9552    0.0979    0.7461 H   0  0  0  0  0  0  0  0  0  0  0  0
   -7.4403    0.0990    1.6796 H   0  0  0  0  0  0  0  0  0  0  0  0
   -8.8807    0.8667    2.3323 H   0  0  0  0  0  0  0  0  0  0  0  0
  1 23  1  0  0  0  0
  1 25  1  0  0  0  0
  2  8  1  0  0  0  0
  2 10  1  0  0  0  0
  2 11  1  0  0  0  0
  3  6  1  0  0  0  0
  3 13  1  0  0  0  0
  3 38  1  0  0  0  0
  4  5  1  0  0  0  0
  4 19  1  0  0  0  0
  4 47  1  0  0  0  0
  5 24  2  0  0  0  0
  6  7  1  0  0  0  0
  6  8  1  0  0  0  0
  6 27  1  0  0  0  0
  7  9  1  0  0  0  0
  7 28  1  0  0  0  0
  7 29  1  0  0  0  0
  8 30  1  0  0  0  0
  8 31  1  0  0  0  0
  9 10  1  0  0  0  0
  9 32  1  0  0  0  0
  9 33  1  0  0  0  0
 10 34  1  0  0  0  0
 10 35  1  0  0  0  0
 11 12  1  0  0  0  0
 11 36  1  0  0  0  0
 11 37  1  0  0  0  0
 12 16  2  0  0  0  0
 12 17  1  0  0  0  0
 13 14  2  0  0  0  0
 13 15  1  0  0  0  0
 14 18  1  0  0  0  0
 14 39  1  0  0  0  0
 15 20  2  0  0  0  0
 15 40  1  0  0  0  0
 16 21  1  0  0  0  0
 16 41  1  0  0  0  0
 17 22  2  0  0  0  0
 17 42  1  0  0  0  0
 18 19  2  0  0  0  0
 18 24  1  0  0  0  0
 19 20  1  0  0  0  0
 20 43  1  0  0  0  0
 21 23  2  0  0  0  0
 21 44  1  0  0  0  0
 22 23  1  0  0  0  0
 22 45  1  0  0  0  0
 24 46  1  0  0  0  0
 25 26  1  0  0  0  0
 25 48  1  0  0  0  0
 25 49  1  0  0  0  0
 26 50  1  0  0  0  0
 26 51  1  0  0  0  0
 26 52  1  0  0  0  0
M  END
> <PUBCHEM_COMPOUND_CID>
25008494

> <PUBCHEM_CONFORMER_RMSD>
1

> <PUBCHEM_CONFORMER_DIVERSEORDER>
1
79
54
90
106
150
125
188
103
155
163
14
168
61
96
162
48
143
159
136
158
59
129
113
81
37
20
102
109
178
27
149
117
66
50
146
35
67
22
34
42
173
131
148
9
64
119
26
98
189
181
23
154
47
32
121
133
74
177
126
152
127
85
166
171
43
53
60
39
174
105
52
86
45
70
16
137
18
44
134
182
120
30
176
107
38
93
183
169
157
68
40
29
82
63
41
145
91
94
128
179
100
165
144
80
62
180
72
135
114
89
7
153
83
6
187
46
185
24
25
77
118
130
17
71
76
87
28
141
88
161
51
58
4
175
140
15
160
108
170
115
56
110
112
124
99
147
65
101
111
164
104
184
97
49
186
13
123
2
73
21
11
151
139
33
55
3
78
138
95
92
167
5
156
57
132
84
36
122
12
172
69
8
31
142
19
75
116
10

> <PUBCHEM_MMFF94_PARTIAL_CHARGES>
32
1 -0.33
10 0.27
11 0.41
12 -0.14
13 0.1
14 -0.15
15 -0.15
16 -0.15
17 -0.15
19 -0.15
2 -0.81
20 -0.15
21 -0.15
22 -0.15
23 0.1
24 0.14
25 0.23
3 -0.87
38 0.4
39 0.15
4 0.3
40 0.15
41 0.15
42 0.15
43 0.15
44 0.15
45 0.15
46 0.15
47 0.27
5 -0.71
6 0.37
8 0.27

> <PUBCHEM_EFFECTIVE_ROTOR_COUNT>
7.2

> <PUBCHEM_PHARMACOPHORE_FEATURES>
10
1 2 cation
1 26 hydrophobe
1 3 cation
1 3 donor
1 4 donor
1 5 acceptor
5 4 5 18 19 24 rings
6 12 16 17 21 22 23 rings
6 13 14 15 18 19 20 rings
6 2 6 7 8 9 10 rings

> <PUBCHEM_HEAVY_ATOM_COUNT>
26

> <PUBCHEM_ATOM_DEF_STEREO_COUNT>
0

> <PUBCHEM_ATOM_UDEF_STEREO_COUNT>
1

> <PUBCHEM_BOND_DEF_STEREO_COUNT>
0

> <PUBCHEM_BOND_UDEF_STEREO_COUNT>
0

> <PUBCHEM_ISOTOPIC_ATOM_COUNT>
0

> <PUBCHEM_COMPONENT_COUNT>
1

> <PUBCHEM_CACTVS_TAUTO_COUNT>
2

> <PUBCHEM_CONFORMER_ID>
017D996E00000001

> <PUBCHEM_MMFF94_ENERGY>
62.6656

> <PUBCHEM_FEATURE_SELFOVERLAP>
50.837

> <PUBCHEM_SHAPE_FINGERPRINT>
10 15 18041002834689857433
10554248 39 18200862972861162342
10591671 39 17632577205537556559
10670039 82 16988855964430586736
10693767 8 12535351173295576780
10906281 52 18131079195366836891
11297750 10 17537716599513031070
11408170 132 15482119245893727329
11646440 116 15357699665082185773
11991303 11 16988556969844770846
12035758 1 15502094159044502755
12236239 1 18411695522057667538
12539765 74 18342743992069850623
12596602 18 17894911845097827443
12778500 126 18259702294724892820
12895837 130 18343582945981111405
13167372 99 18334571335462589392
13668630 136 11887954354183361917
13673619 4 11025801998557114975
13685833 64 12179851593419313463
14251764 18 17603588538974989815
14347424 109 18113890538727124698
14849402 71 18187649162736486213
14931854 50 14908180837615331175
15183329 4 17989489623347787776
15348495 7 15647342982416178248
15475509 35 10953456362521435900
1577012 14 18410852174499493782
15840311 113 18114184103150621598
15961568 22 18342460326538376013
16989713 51 17416957525882731719
1768 4 18412554210885478497
17980427 23 18334576871659818351
190975 80 13623819357420680198
19958102 18 14045743742019298140
20105231 36 14707205488552138234
20157964 124 18411137991920535250
2026 5 9799423212720079245
20281389 69 17967530155748230725
21130935 74 17603300453479771730
21344244 181 12823290221441204220
21521239 73 12751519578821536644
21585481 104 13542471942964739059
21637258 2 8358255939003764743
22122407 14 18335991972999937840
22224240 67 17095241415247089563
23576562 1 17273399780789075313
2838139 119 18271796922118894649
3103668 31 16628530731268816023
312425 54 16805322206140449194
3383291 50 14129064716636074065
3663271 9 18040432217581957819
3918712 181 17846493751389899576
397830 11 17677063424580429755
4073 2 17967535704862536218
504579 68 14333412225243558635
504843 32 18201434818283184615
5104073 3 14924529523263649685
54039377 194 8935008079337606200
5470011 282 12751228225172320361
59682541 52 14692579792984313716
8863177 126 11170497728698310573
9953998 17 17167868548488261233
999808 66 11959722829041641069

> <PUBCHEM_SHAPE_MULTIPOLES>
518.99
24.65
2.2
1.46
9.52
0.8
0.33
19.1
-4.83
-0.66
0.39
0.16
-0.35
-1.88

> <PUBCHEM_SHAPE_SELFOVERLAP>
1099.556

> <PUBCHEM_SHAPE_VOLUME>
292.6

> <PUBCHEM_COORDINATE_TYPE>
2
5
10

$$$$
25009893
  -OEChem-05102415113D

 53 56  0     1  0  0  0  0  0999 V2000
   -4.5529    0.3103   -0.1057 O   0  0  0  0  0  0  0  0  0  0  0  0
   -6.7495   -1.4063   -0.3771 O   0  0  0  0  0  0  0  0  0  0  0  0
    1.1836    3.0272   -0.1111 N   0  0  2  0  0  0  0  0  0  0  0  0
    3.5375    0.1471    0.2807 N   0  0  0  0  0  0  0  0  0  0  0  0
    1.1730   -4.7877    0.0128 N   0  0  0  0  0  0  0  0  0  0  0  0
    0.0664   -4.5793   -0.7199 N   0  0  0  0  0  0  0  0  0  0  0  0
    2.9316    1.2901   -0.3703 C   0  0  2  0  0  0  0  0  0  0  0  0
    3.9894    2.3700   -0.6009 C   0  0  0  0  0  0  0  0  0  0  0  0
    1.7806    1.8262    0.4912 C   0  0  0  0  0  0  0  0  0  0  0  0
    3.3445    3.6393   -1.1467 C   0  0  0  0  0  0  0  0  0  0  0  0
    2.1809    4.0951   -0.2654 C   0  0  0  0  0  0  0  0  0  0  0  0
    0.0533    3.4949    0.6912 C   0  0  0  0  0  0  0  0  0  0  0  0
   -1.1731    2.6475    0.4801 C   0  0  0  0  0  0  0  0  0  0  0  0
    2.9945   -1.1249    0.2537 C   0  0  0  0  0  0  0  0  0  0  0  0
    1.7941   -1.3463   -0.4330 C   0  0  0  0  0  0  0  0  0  0  0  0
    3.6501   -2.1689    0.9091 C   0  0  0  0  0  0  0  0  0  0  0  0
   -1.9305    2.7953   -0.6818 C   0  0  0  0  0  0  0  0  0  0  0  0
   -1.5510    1.7137    1.4451 C   0  0  0  0  0  0  0  0  0  0  0  0
    1.2602   -2.6457   -0.4493 C   0  0  0  0  0  0  0  0  0  0  0  0
    1.9335   -3.6671    0.2117 C   0  0  0  0  0  0  0  0  0  0  0  0
    3.1312   -3.4677    0.9019 C   0  0  0  0  0  0  0  0  0  0  0  0
   -3.0659    2.0093   -0.8787 C   0  0  0  0  0  0  0  0  0  0  0  0
   -2.6864    0.9279    1.2482 C   0  0  0  0  0  0  0  0  0  0  0  0
   -3.4438    1.0756    0.0862 C   0  0  0  0  0  0  0  0  0  0  0  0
    0.1229   -3.2752   -0.9990 C   0  0  0  0  0  0  0  0  0  0  0  0
   -4.5545   -0.9895    0.4826 C   0  0  0  0  0  0  0  0  0  0  0  0
   -5.4198   -1.9109   -0.3555 C   0  0  0  0  0  0  0  0  0  0  0  0
    2.5616    1.0184   -1.3678 H   0  0  0  0  0  0  0  0  0  0  0  0
    4.5052    2.6032    0.3400 H   0  0  0  0  0  0  0  0  0  0  0  0
    4.7573    2.0108   -1.2966 H   0  0  0  0  0  0  0  0  0  0  0  0
    1.0225    1.0472    0.6061 H   0  0  0  0  0  0  0  0  0  0  0  0
    2.1489    2.0467    1.5037 H   0  0  0  0  0  0  0  0  0  0  0  0
    2.9841    3.4572   -2.1671 H   0  0  0  0  0  0  0  0  0  0  0  0
    4.0941    4.4361   -1.2106 H   0  0  0  0  0  0  0  0  0  0  0  0
    1.7212    4.9699   -0.7414 H   0  0  0  0  0  0  0  0  0  0  0  0
    2.5618    4.4176    0.7126 H   0  0  0  0  0  0  0  0  0  0  0  0
   -0.2227    4.5188    0.4017 H   0  0  0  0  0  0  0  0  0  0  0  0
    0.3098    3.5583    1.7576 H   0  0  0  0  0  0  0  0  0  0  0  0
    4.3644    0.2958    0.8490 H   0  0  0  0  0  0  0  0  0  0  0  0
    1.2495   -0.5758   -0.9642 H   0  0  0  0  0  0  0  0  0  0  0  0
    4.5826   -1.9847    1.4390 H   0  0  0  0  0  0  0  0  0  0  0  0
   -1.6460    3.5189   -1.4413 H   0  0  0  0  0  0  0  0  0  0  0  0
   -0.9727    1.5926    2.3572 H   0  0  0  0  0  0  0  0  0  0  0  0
    3.6388   -4.2799    1.4102 H   0  0  0  0  0  0  0  0  0  0  0  0
   -3.6521    2.1286   -1.7858 H   0  0  0  0  0  0  0  0  0  0  0  0
   -2.9609    0.2327    2.0359 H   0  0  0  0  0  0  0  0  0  0  0  0
   -0.6674   -2.8354   -1.5909 H   0  0  0  0  0  0  0  0  0  0  0  0
    1.3535   -5.7251    0.3498 H   0  0  0  0  0  0  0  0  0  0  0  0
   -4.9671   -0.9093    1.4949 H   0  0  0  0  0  0  0  0  0  0  0  0
   -3.5474   -1.4230    0.5201 H   0  0  0  0  0  0  0  0  0  0  0  0
   -5.0584   -1.9473   -1.3880 H   0  0  0  0  0  0  0  0  0  0  0  0
   -5.4323   -2.9209    0.0643 H   0  0  0  0  0  0  0  0  0  0  0  0
   -7.2769   -2.0164   -0.9205 H   0  0  0  0  0  0  0  0  0  0  0  0
  1 24  1  0  0  0  0
  1 26  1  0  0  0  0
  2 27  1  0  0  0  0
  2 53  1  0  0  0  0
  3  9  1  0  0  0  0
  3 11  1  0  0  0  0
  3 12  1  0  0  0  0
  4  7  1  0  0  0  0
  4 14  1  0  0  0  0
  4 39  1  0  0  0  0
  5  6  1  0  0  0  0
  5 20  1  0  0  0  0
  5 48  1  0  0  0  0
  6 25  2  0  0  0  0
  7  8  1  0  0  0  0
  7  9  1  0  0  0  0
  7 28  1  0  0  0  0
  8 10  1  0  0  0  0
  8 29  1  0  0  0  0
  8 30  1  0  0  0  0
  9 31  1  0  0  0  0
  9 32  1  0  0  0  0
 10 11  1  0  0  0  0
 10 33  1  0  0  0  0
 10 34  1  0  0  0  0
 11 35  1  0  0  0  0
 11 36  1  0  0  0  0
 12 13  1  0  0  0  0
 12 37  1  0  0  0  0
 12 38  1  0  0  0  0
 13 17  2  0  0  0  0
 13 18  1  0  0  0  0
 14 15  2  0  0  0  0
 14 16  1  0  0  0  0
 15 19  1  0  0  0  0
 15 40  1  0  0  0  0
 16 21  2  0  0  0  0
 16 41  1  0  0  0  0
 17 22  1  0  0  0  0
 17 42  1  0  0  0  0
 18 23  2  0  0  0  0
 18 43  1  0  0  0  0
 19 20  2  0  0  0  0
 19 25  1  0  0  0  0
 20 21  1  0  0  0  0
 21 44  1  0  0  0  0
 22 24  2  0  0  0  0
 22 45  1  0  0  0  0
 23 24  1  0  0  0  0
 23 46  1  0  0  0  0
 25 47  1  0  0  0  0
 26 27  1  0  0  0  0
 26 49  1  0  0  0  0
 26 50  1  0  0  0  0
 27 51  1  0  0  0  0
 27 52  1  0  0  0  0
M  END
> <PUBCHEM_COMPOUND_CID>
25009893

> <PUBCHEM_CONFORMER_RMSD>
1

> <PUBCHEM_CONFORMER_DIVERSEORDER>
1
126
119
141
55
93
122
74
142
85
98
53
144
73
69
77
147
79
168
7
76
57
157
78
139
163
72
20
47
105
35
125
148
127
87
167
50
169
166
24
108
34
124
62
45
54
83
56
165
22
100
16
149
52
90
18
26
84
112
120
27
66
140
150
116
134
103
156
33
30
97
40
29
43
96
41
153
21
12
4
159
95
14
132
94
15
160
131
67
136
23
106
109
107
71
117
58
25
5
135
155
145
114
82
129
130
61
146
111
8
28
101
115
158
92
37
162
152
65
17
121
161
68
59
88
128
2
102
137
39
60
46
113
42
32
133
81
13
49
63
44
89
31
10
154
3
51
19
143
138
164
118
99
91
48
6
75
36
38
9
70
123
11
151
110
64
80
86
170
104

> <PUBCHEM_MMFF94_PARTIAL_CHARGES>
35
1 -0.36
11 0.27
12 0.41
13 -0.14
14 0.1
15 -0.15
16 -0.15
17 -0.15
18 -0.15
2 -0.68
20 -0.15
21 -0.15
22 -0.15
23 -0.15
24 0.08
25 0.14
26 0.28
27 0.28
3 -0.81
39 0.4
4 -0.87
40 0.15
41 0.15
42 0.15
43 0.15
44 0.15
45 0.15
46 0.15
47 0.15
48 0.27
5 0.3
53 0.4
6 -0.71
7 0.37
9 0.27

> <PUBCHEM_EFFECTIVE_ROTOR_COUNT>
8.2

> <PUBCHEM_PHARMACOPHORE_FEATURES>
12
1 1 acceptor
1 2 acceptor
1 2 donor
1 3 cation
1 4 cation
1 4 donor
1 5 donor
1 6 acceptor
5 5 6 19 20 25 rings
6 13 17 18 22 23 24 rings
6 14 15 16 19 20 21 rings
6 3 7 8 9 10 11 rings

> <PUBCHEM_HEAVY_ATOM_COUNT>
27

> <PUBCHEM_ATOM_DEF_STEREO_COUNT>
0

> <PUBCHEM_ATOM_UDEF_STEREO_COUNT>
1

> <PUBCHEM_BOND_DEF_STEREO_COUNT>
0

> <PUBCHEM_BOND_UDEF_STEREO_COUNT>
0

> <PUBCHEM_ISOTOPIC_ATOM_COUNT>
0

> <PUBCHEM_COMPONENT_COUNT>
1

> <PUBCHEM_CACTVS_TAUTO_COUNT>
2

> <PUBCHEM_CONFORMER_ID>
017D9EE500000001

> <PUBCHEM_MMFF94_ENERGY>
71.4498

> <PUBCHEM_FEATURE_SELFOVERLAP>
60.991

> <PUBCHEM_SHAPE_FINGERPRINT>
10940486 97 16462225865204399470
1100329 8 18195523925343937672
11014199 57 18051696542372855334
12156800 1 17479712258915947696
12553582 1 17690299118133365320
13122387 1 17980202989241541003
1361 2 18193838365323361433
138480 1 18193841444572312900
14659021 117 17111276426322499602
14866123 147 18266175227305181920
15110567 62 18339926042847000433
152267 14 17834956373879162215
15351339 4 17620740022488476683
15483637 11 17402051592103653927
17138139 8 17556853947375415581
17627616 140 18194676205910821455
19930381 70 18410293580027811713
20028762 73 18272374200204411814
20764821 26 17979341290148305223
20775530 9 18117289051110075993
21133410 52 18339067247305196186
21133410 62 17903335341919825391
23559900 14 18265886965372925313
3882209 13 17687145770388217595
437795 70 17914080782873001446
445580 102 18339638919782365951
463206 1 18197497535662147227
5047190 2 17913479423291620719
5309563 4 18340205198324970009
5312544 6 18338233876939655287
613672 6 17904186040920475673
6433294 58 18410574024207187379
9709674 26 16825866267815792666

> <PUBCHEM_SHAPE_MULTIPOLES>
523.98
9.6
7.42
1.06
15
3.36
0.11
3.21
-0.52
-5.87
-1.09
0.03
-0.18
-1.6

> <PUBCHEM_SHAPE_SELFOVERLAP>
1126.245

> <PUBCHEM_SHAPE_VOLUME>
290.3

> <PUBCHEM_COORDINATE_TYPE>
2
5
10

$$$$
25009019
  -OEChem-05102415113D

 56 59  0     1  0  0  0  0  0999 V2000
    0.4940    3.1443   -0.1452 N   0  0  2  0  0  0  0  0  0  0  0  0
    3.3849    0.7848    0.1127 N   0  0  0  0  0  0  0  0  0  0  0  0
    2.0055   -4.5166    0.1960 N   0  0  0  0  0  0  0  0  0  0  0  0
   -4.5450   -1.5317   -0.7507 N   0  0  0  0  0  0  0  0  0  0  0  0
    0.8225   -4.5553   -0.4395 N   0  0  0  0  0  0  0  0  0  0  0  0
    2.5174    1.7616   -0.5125 C   0  0  1  0  0  0  0  0  0  0  0  0
    1.3600    2.1068    0.4340 C   0  0  0  0  0  0  0  0  0  0  0  0
    3.3234    3.0117   -0.8674 C   0  0  0  0  0  0  0  0  0  0  0  0
    2.4021    4.1094   -1.3878 C   0  0  0  0  0  0  0  0  0  0  0  0
    1.2497    4.3744   -0.4183 C   0  0  0  0  0  0  0  0  0  0  0  0
   -0.6346    3.4236    0.7424 C   0  0  0  0  0  0  0  0  0  0  0  0
   -1.6872    2.3498    0.6663 C   0  0  0  0  0  0  0  0  0  0  0  0
    3.0978   -0.5671    0.1701 C   0  0  0  0  0  0  0  0  0  0  0  0
   -1.7959    1.4064    1.6880 C   0  0  0  0  0  0  0  0  0  0  0  0
   -2.5534    2.2979   -0.4258 C   0  0  0  0  0  0  0  0  0  0  0  0
    1.9100   -1.0432   -0.3993 C   0  0  0  0  0  0  0  0  0  0  0  0
    3.9951   -1.4370    0.7924 C   0  0  0  0  0  0  0  0  0  0  0  0
   -3.6369    0.3596    0.5256 C   0  0  0  0  0  0  0  0  0  0  0  0
    1.6381   -2.4199   -0.3313 C   0  0  0  0  0  0  0  0  0  0  0  0
   -2.7707    0.4113    1.6177 C   0  0  0  0  0  0  0  0  0  0  0  0
   -3.5283    1.3029   -0.4962 C   0  0  0  0  0  0  0  0  0  0  0  0
    2.5487   -3.2640    0.2944 C   0  0  0  0  0  0  0  0  0  0  0  0
    3.7384   -2.8099    0.8680 C   0  0  0  0  0  0  0  0  0  0  0  0
   -4.6785   -0.7052    0.4502 C   0  0  0  0  0  0  0  0  0  0  0  0
    0.6022   -3.2780   -0.7586 C   0  0  0  0  0  0  0  0  0  0  0  0
   -5.8018   -2.2215   -1.0369 C   0  0  0  0  0  0  0  0  0  0  0  0
   -3.4573   -2.4950   -0.5882 C   0  0  0  0  0  0  0  0  0  0  0  0
    2.1252    1.3802   -1.4646 H   0  0  0  0  0  0  0  0  0  0  0  0
    0.7791    1.2036    0.6382 H   0  0  0  0  0  0  0  0  0  0  0  0
    1.7615    2.4381    1.4027 H   0  0  0  0  0  0  0  0  0  0  0  0
    3.8608    3.3804    0.0164 H   0  0  0  0  0  0  0  0  0  0  0  0
    4.0857    2.7745   -1.6192 H   0  0  0  0  0  0  0  0  0  0  0  0
    2.0002    3.8168   -2.3662 H   0  0  0  0  0  0  0  0  0  0  0  0
    2.9756    5.0306   -1.5411 H   0  0  0  0  0  0  0  0  0  0  0  0
    0.5915    5.1236   -0.8751 H   0  0  0  0  0  0  0  0  0  0  0  0
    1.6408    4.8068    0.5121 H   0  0  0  0  0  0  0  0  0  0  0  0
   -1.1267    4.3623    0.4506 H   0  0  0  0  0  0  0  0  0  0  0  0
   -0.3076    3.5823    1.7792 H   0  0  0  0  0  0  0  0  0  0  0  0
    4.2116    1.1133    0.5998 H   0  0  0  0  0  0  0  0  0  0  0  0
   -1.1272    1.4347    2.5442 H   0  0  0  0  0  0  0  0  0  0  0  0
   -2.4791    3.0279   -1.2277 H   0  0  0  0  0  0  0  0  0  0  0  0
    1.1844   -0.4149   -0.9004 H   0  0  0  0  0  0  0  0  0  0  0  0
    4.9150   -1.0554    1.2308 H   0  0  0  0  0  0  0  0  0  0  0  0
   -2.8421   -0.3176    2.4205 H   0  0  0  0  0  0  0  0  0  0  0  0
   -4.1993    1.2793   -1.3509 H   0  0  0  0  0  0  0  0  0  0  0  0
    4.4339   -3.4872    1.3509 H   0  0  0  0  0  0  0  0  0  0  0  0
   -5.6456   -0.1821    0.4417 H   0  0  0  0  0  0  0  0  0  0  0  0
   -4.6917   -1.3240    1.3579 H   0  0  0  0  0  0  0  0  0  0  0  0
   -0.3024   -3.0243   -1.2925 H   0  0  0  0  0  0  0  0  0  0  0  0
    2.3912   -5.3866    0.5413 H   0  0  0  0  0  0  0  0  0  0  0  0
   -6.1088   -2.8799   -0.2162 H   0  0  0  0  0  0  0  0  0  0  0  0
   -6.6058   -1.5003   -1.2216 H   0  0  0  0  0  0  0  0  0  0  0  0
   -5.7110   -2.8250   -1.9470 H   0  0  0  0  0  0  0  0  0  0  0  0
   -3.6273   -3.1784    0.2520 H   0  0  0  0  0  0  0  0  0  0  0  0
   -3.3419   -3.0966   -1.4971 H   0  0  0  0  0  0  0  0  0  0  0  0
   -2.4982   -1.9898   -0.4334 H   0  0  0  0  0  0  0  0  0  0  0  0
  1  7  1  0  0  0  0
  1 10  1  0  0  0  0
  1 11  1  0  0  0  0
  2  6  1  0  0  0  0
  2 13  1  0  0  0  0
  2 39  1  0  0  0  0
  3  5  1  0  0  0  0
  3 22  1  0  0  0  0
  3 50  1  0  0  0  0
  4 24  1  0  0  0  0
  4 26  1  0  0  0  0
  4 27  1  0  0  0  0
  5 25  2  0  0  0  0
  6  7  1  0  0  0  0
  6  8  1  0  0  0  0
  6 28  1  0  0  0  0
  7 29  1  0  0  0  0
  7 30  1  0  0  0  0
  8  9  1  0  0  0  0
  8 31  1  0  0  0  0
  8 32  1  0  0  0  0
  9 10  1  0  0  0  0
  9 33  1  0  0  0  0
  9 34  1  0  0  0  0
 10 35  1  0  0  0  0
 10 36  1  0  0  0  0
 11 12  1  0  0  0  0
 11 37  1  0  0  0  0
 11 38  1  0  0  0  0
 12 14  2  0  0  0  0
 12 15  1  0  0  0  0
 13 16  2  0  0  0  0
 13 17  1  0  0  0  0
 14 20  1  0  0  0  0
 14 40  1  0  0  0  0
 15 21  2  0  0  0  0
 15 41  1  0  0  0  0
 16 19  1  0  0  0  0
 16 42  1  0  0  0  0
 17 23  2  0  0  0  0
 17 43  1  0  0  0  0
 18 20  2  0  0  0  0
 18 21  1  0  0  0  0
 18 24  1  0  0  0  0
 19 22  2  0  0  0  0
 19 25  1  0  0  0  0
 20 44  1  0  0  0  0
 21 45  1  0  0  0  0
 22 23  1  0  0  0  0
 23 46  1  0  0  0  0
 24 47  1  0  0  0  0
 24 48  1  0  0  0  0
 25 49  1  0  0  0  0
 26 51  1  0  0  0  0
 26 52  1  0  0  0  0
 26 53  1  0  0  0  0
 27 54  1  0  0  0  0
 27 55  1  0  0  0  0
 27 56  1  0  0  0  0
M  END
> <PUBCHEM_COMPOUND_CID>
25009019

> <PUBCHEM_CONFORMER_RMSD>
1

> <PUBCHEM_CONFORMER_DIVERSEORDER>
1
80
184
49
25
18
27
137
143
3
129
67
164
155
176
60
86
107
79
138
136
135
141
61
34
54
181
39
105
101
158
77
148
126
159
147
113
142
167
32
177
139
46
146
72
42
112
123
5
115
41
111
106
64
35
55
140
63
121
57
30
169
133
37
8
150
154
22
83
87
47
21
15
85
109
92
104
118
50
182
45
124
163
14
168
69
156
134
178
40
38
152
162
97
174
161
132
76
151
95
68
7
131
84
153
10
157
66
82
11
62
110
12
166
185
144
103
65
96
180
91
23
70
71
93
170
125
94
172
52
114
122
29
117
100
44
127
9
43
26
2
165
24
130
78
99
28
160
74
186
116
58
149
183
102
188
48
13
36
33
187
90
88
6
145
175
75
19
179
31
120
59
171
17
98
108
56
73
173
128
4
20
89
53
51
81
16
119

> <PUBCHEM_MMFF94_PARTIAL_CHARGES>
34
1 -0.81
10 0.27
11 0.41
12 -0.14
13 0.1
14 -0.15
15 -0.15
16 -0.15
17 -0.15
18 -0.14
2 -0.87
20 -0.15
21 -0.15
22 -0.15
23 -0.15
24 0.41
25 0.14
26 0.27
27 0.27
3 0.3
39 0.4
4 -0.81
40 0.15
41 0.15
42 0.15
43 0.15
44 0.15
45 0.15
46 0.15
49 0.15
5 -0.71
50 0.27
6 0.37
7 0.27

> <PUBCHEM_EFFECTIVE_ROTOR_COUNT>
7.2

> <PUBCHEM_PHARMACOPHORE_FEATURES>
10
1 1 cation
1 2 cation
1 2 donor
1 3 donor
1 4 cation
1 5 acceptor
5 3 5 19 22 25 rings
6 1 6 7 8 9 10 rings
6 12 14 15 18 20 21 rings
6 13 16 17 19 22 23 rings

> <PUBCHEM_HEAVY_ATOM_COUNT>
27

> <PUBCHEM_ATOM_DEF_STEREO_COUNT>
0

> <PUBCHEM_ATOM_UDEF_STEREO_COUNT>
1

> <PUBCHEM_BOND_DEF_STEREO_COUNT>
0

> <PUBCHEM_BOND_UDEF_STEREO_COUNT>
0

> <PUBCHEM_ISOTOPIC_ATOM_COUNT>
0

> <PUBCHEM_COMPONENT_COUNT>
1

> <PUBCHEM_CACTVS_TAUTO_COUNT>
2

> <PUBCHEM_CONFORMER_ID>
017D9B7B00000001

> <PUBCHEM_MMFF94_ENERGY>
68.7208

> <PUBCHEM_FEATURE_SELFOVERLAP>
50.838

> <PUBCHEM_SHAPE_FINGERPRINT>
1100329 8 18050844722168136780
11014199 57 18268430126998812007
11552529 35 17840304415753008888
12156800 1 15384921129081086677
12553582 1 17976845093921339032
13122387 1 18124600786260523155
13560911 43 18260537927182243587
1361 2 18121779706165199017
14117953 113 18053666880600881149
14251757 5 16754963164807971246
14659021 117 17398660212922539306
14725015 67 15892203444538289418
14866123 147 18121784100492184504
14932702 115 17189552295396988713
15110567 62 18196092377087226577
152267 14 17979351963063278351
15250474 111 18341894147407273117
17138139 8 17412179137882573765
17627616 140 17905882935233990247
19930381 70 18410012135158057131
20028762 73 18272092746881697356
20775530 9 18262524680194648561
21133410 52 18339628041237626574
21857420 4 14581878479793483717
23559900 14 18338507561030495729
238 59 18263369259611948936
3882209 13 17831822843154822539
463206 1 18339646741070714995
5309563 4 18411140199459508553
5312544 6 18265894842253048167

> <PUBCHEM_SHAPE_MULTIPOLES>
530.74
9.18
7.2
1.18
10.09
1
0.2
5.06
-0.93
-5.67
-1.53
0.45
-0.35
-2.56

> <PUBCHEM_SHAPE_SELFOVERLAP>
1137.485

> <PUBCHEM_SHAPE_VOLUME>
294

> <PUBCHEM_COORDINATE_TYPE>
2
5
10

$$$$
44595671
  -OEChem-05102415113D

 52 56  0     1  0  0  0  0  0999 V2000
   -0.7653    2.9732   -0.1016 N   0  0  2  0  0  0  0  0  0  0  0  0
    2.7545    1.7542    0.2384 N   0  0  0  0  0  0  0  0  0  0  0  0
    3.3091   -3.6931    0.0546 N   0  0  0  0  0  0  0  0  0  0  0  0
    2.2421   -4.1054   -0.6500 N   0  0  0  0  0  0  0  0  0  0  0  0
   -4.2856   -2.4573    0.0548 C   0  0  0  0  0  0  0  0  0  0  0  0
   -3.4073   -3.6713    0.1334 C   0  0  0  0  0  0  0  0  0  0  0  0
   -3.9837   -3.2465   -1.1854 C   0  0  0  0  0  0  0  0  0  0  0  0
    1.6272    2.4010   -0.4006 C   0  0  1  0  0  0  0  0  0  0  0  0
   -3.6854   -1.1046    0.2282 C   0  0  0  0  0  0  0  0  0  0  0  0
    0.3837    2.2715    0.4893 C   0  0  0  0  0  0  0  0  0  0  0  0
    1.9594    3.8702   -0.6634 C   0  0  0  0  0  0  0  0  0  0  0  0
   -0.4766    4.4020   -0.2865 C   0  0  0  0  0  0  0  0  0  0  0  0
    0.7351    4.6061   -1.1966 C   0  0  0  0  0  0  0  0  0  0  0  0
   -1.9563    2.7952    0.7288 C   0  0  0  0  0  0  0  0  0  0  0  0
   -2.5628    1.4284    0.5535 C   0  0  0  0  0  0  0  0  0  0  0  0
   -2.9395   -0.8137    1.3705 C   0  0  0  0  0  0  0  0  0  0  0  0
   -3.8698   -0.1289   -0.7515 C   0  0  0  0  0  0  0  0  0  0  0  0
   -2.3781    0.4528    1.5331 C   0  0  0  0  0  0  0  0  0  0  0  0
   -3.3087    1.1377   -0.5888 C   0  0  0  0  0  0  0  0  0  0  0  0
    2.9559    0.3857    0.2309 C   0  0  0  0  0  0  0  0  0  0  0  0
    2.0341   -0.4415   -0.4232 C   0  0  0  0  0  0  0  0  0  0  0  0
    4.0726   -0.1515    0.8739 C   0  0  0  0  0  0  0  0  0  0  0  0
    2.2566   -1.8285   -0.4197 C   0  0  0  0  0  0  0  0  0  0  0  0
    3.3768   -2.3370    0.2284 C   0  0  0  0  0  0  0  0  0  0  0  0
    4.3077   -1.5302    0.8862 C   0  0  0  0  0  0  0  0  0  0  0  0
    1.6042   -2.9684   -0.9367 C   0  0  0  0  0  0  0  0  0  0  0  0
   -5.2901   -2.5777    0.4551 H   0  0  0  0  0  0  0  0  0  0  0  0
   -2.3389   -3.5526    0.2690 H   0  0  0  0  0  0  0  0  0  0  0  0
   -3.8161   -4.5603    0.5988 H   0  0  0  0  0  0  0  0  0  0  0  0
   -3.2965   -2.8467   -1.9214 H   0  0  0  0  0  0  0  0  0  0  0  0
   -4.7796   -3.8503   -1.6051 H   0  0  0  0  0  0  0  0  0  0  0  0
    1.4332    1.9590   -1.3868 H   0  0  0  0  0  0  0  0  0  0  0  0
    0.1472    1.2133    0.6272 H   0  0  0  0  0  0  0  0  0  0  0  0
    0.6034    2.6693    1.4907 H   0  0  0  0  0  0  0  0  0  0  0  0
    2.7872    3.9532   -1.3779 H   0  0  0  0  0  0  0  0  0  0  0  0
    2.2968    4.3547    0.2626 H   0  0  0  0  0  0  0  0  0  0  0  0
   -0.3003    4.8927    0.6798 H   0  0  0  0  0  0  0  0  0  0  0  0
   -1.3354    4.8994   -0.7534 H   0  0  0  0  0  0  0  0  0  0  0  0
    0.5021    4.2450   -2.2064 H   0  0  0  0  0  0  0  0  0  0  0  0
    0.9563    5.6759   -1.2836 H   0  0  0  0  0  0  0  0  0  0  0  0
   -1.7489    3.0017    1.7877 H   0  0  0  0  0  0  0  0  0  0  0  0
   -2.7329    3.5188    0.4427 H   0  0  0  0  0  0  0  0  0  0  0  0
   -2.7911   -1.5630    2.1437 H   0  0  0  0  0  0  0  0  0  0  0  0
   -4.4522   -0.3404   -1.6444 H   0  0  0  0  0  0  0  0  0  0  0  0
    3.3937    2.3228    0.7833 H   0  0  0  0  0  0  0  0  0  0  0  0
   -1.7998    0.6661    2.4282 H   0  0  0  0  0  0  0  0  0  0  0  0
   -3.4600    1.8897   -1.3587 H   0  0  0  0  0  0  0  0  0  0  0  0
    1.1570   -0.0778   -0.9436 H   0  0  0  0  0  0  0  0  0  0  0  0
    4.7820    0.5013    1.3788 H   0  0  0  0  0  0  0  0  0  0  0  0
    5.1745   -1.9492    1.3850 H   0  0  0  0  0  0  0  0  0  0  0  0
    0.6890   -3.0158   -1.5100 H   0  0  0  0  0  0  0  0  0  0  0  0
    3.9588   -4.3927    0.3912 H   0  0  0  0  0  0  0  0  0  0  0  0
  1 10  1  0  0  0  0
  1 12  1  0  0  0  0
  1 14  1  0  0  0  0
  2  8  1  0  0  0  0
  2 20  1  0  0  0  0
  2 45  1  0  0  0  0
  3  4  1  0  0  0  0
  3 24  1  0  0  0  0
  3 52  1  0  0  0  0
  4 26  2  0  0  0  0
  5  6  1  0  0  0  0
  5  7  1  0  0  0  0
  5  9  1  0  0  0  0
  5 27  1  0  0  0  0
  6  7  1  0  0  0  0
  6 28  1  0  0  0  0
  6 29  1  0  0  0  0
  7 30  1  0  0  0  0
  7 31  1  0  0  0  0
  8 10  1  0  0  0  0
  8 11  1  0  0  0  0
  8 32  1  0  0  0  0
  9 16  2  0  0  0  0
  9 17  1  0  0  0  0
 10 33  1  0  0  0  0
 10 34  1  0  0  0  0
 11 13  1  0  0  0  0
 11 35  1  0  0  0  0
 11 36  1  0  0  0  0
 12 13  1  0  0  0  0
 12 37  1  0  0  0  0
 12 38  1  0  0  0  0
 13 39  1  0  0  0  0
 13 40  1  0  0  0  0
 14 15  1  0  0  0  0
 14 41  1  0  0  0  0
 14 42  1  0  0  0  0
 15 18  2  0  0  0  0
 15 19  1  0  0  0  0
 16 18  1  0  0  0  0
 16 43  1  0  0  0  0
 17 19  2  0  0  0  0
 17 44  1  0  0  0  0
 18 46  1  0  0  0  0
 19 47  1  0  0  0  0
 20 21  2  0  0  0  0
 20 22  1  0  0  0  0
 21 23  1  0  0  0  0
 21 48  1  0  0  0  0
 22 25  2  0  0  0  0
 22 49  1  0  0  0  0
 23 24  2  0  0  0  0
 23 26  1  0  0  0  0
 24 25  1  0  0  0  0
 25 50  1  0  0  0  0
 26 51  1  0  0  0  0
M  END
> <PUBCHEM_COMPOUND_CID>
44595671

> <PUBCHEM_CONFORMER_RMSD>
0.8

> <PUBCHEM_CONFORMER_DIVERSEORDER>
1
25
196
127
149
71
204
70
146
192
106
79
233
216
120
103
197
83
131
141
48
63
29
215
181
20
64
214
142
143
132
33
218
226
74
54
159
111
160
199
209
40
152
133
81
164
65
88
112
122
168
89
185
180
117
223
198
210
99
39
53
147
7
174
28
36
128
24
227
37
145
212
203
177
110
30
19
219
221
228
42
94
229
182
183
51
153
5
16
102
148
78
95
195
22
59
34
123
27
224
220
194
189
193
187
165
56
235
237
167
93
217
190
236
225
97
176
44
85
62
184
87
232
98
41
14
90
191
162
43
138
144
10
207
208
161
179
154
107
125
113
166
202
86
6
2
73
50
130
104
47
163
188
11
115
26
109
69
119
213
114
155
57
82
35
135
205
75
151
92
169
158
171
15
231
170
137
116
55
150
121
230
46
101
136
234
129
96
84
108
91
175
21
200
31
80
206
18
17
126
3
222
186
72
61
12
156
100
157
124
201
105
211
32
68
45
172
134
58
60
38
76
49
4
77
140
67
23
66
173
13
52
9
8
118
139
178

> <PUBCHEM_MMFF94_PARTIAL_CHARGES>
38
1 -0.81
10 0.27
12 0.27
14 0.41
15 -0.14
16 -0.15
17 -0.15
18 -0.15
19 -0.15
2 -0.87
20 0.1
21 -0.15
22 -0.15
24 -0.15
25 -0.15
26 0.14
27 0.1
28 0.1
29 0.1
3 0.3
30 0.1
31 0.1
4 -0.71
43 0.15
44 0.15
45 0.4
46 0.15
47 0.15
48 0.15
49 0.15
5 -0.07
50 0.15
51 0.15
52 0.27
6 -0.2
7 -0.2
8 0.37
9 -0.03

> <PUBCHEM_EFFECTIVE_ROTOR_COUNT>
6.8

> <PUBCHEM_PHARMACOPHORE_FEATURES>
9
1 1 cation
1 2 cation
1 2 donor
1 3 donor
1 4 acceptor
5 3 4 23 24 26 rings
6 1 8 10 11 12 13 rings
6 20 21 22 23 24 25 rings
6 9 15 16 17 18 19 rings

> <PUBCHEM_HEAVY_ATOM_COUNT>
26

> <PUBCHEM_ATOM_DEF_STEREO_COUNT>
0

> <PUBCHEM_ATOM_UDEF_STEREO_COUNT>
1

> <PUBCHEM_BOND_DEF_STEREO_COUNT>
0

> <PUBCHEM_BOND_UDEF_STEREO_COUNT>
0

> <PUBCHEM_ISOTOPIC_ATOM_COUNT>
0

> <PUBCHEM_COMPONENT_COUNT>
1

> <PUBCHEM_CACTVS_TAUTO_COUNT>
2

> <PUBCHEM_CONFORMER_ID>
02A879D700000001

> <PUBCHEM_MMFF94_ENERGY>
65.2977

> <PUBCHEM_FEATURE_SELFOVERLAP>
45.763

> <PUBCHEM_SHAPE_FINGERPRINT>
10940486 97 17613735717282171470
11014199 57 18411704270252032303
11552529 35 18058166133478696448
12156800 1 15596429301960024093
12553582 1 18265071166262573568
13122387 1 18412831265475749107
1361 2 17401202769443164755
138480 1 18410013281524136349
14117953 113 18342178830561108631
14251757 5 17547315314521908974
14659021 117 18048584929109389402
14725015 67 17690841160291517335
15110567 62 17619070968374728835
152267 14 18340483357339703526
16719943 64 16823623259115301954
17138139 8 16692169531938482799
17627616 140 17402040596618241295
19930381 70 18265894855449192683
20028762 73 17983584288740937732
20775438 99 17834910379480280005
20775530 9 18408322211371515251
21133410 52 18052522564360017654
21133410 62 16823875644700998183
23559900 14 18338788039706383121
238 59 17903361750865774833
3882209 13 17977907342276146527
4280585 95 18263066778277150272
463206 1 18051976115159140907
469060 322 17767920430033802396
5265222 85 16968604897293157654
5309563 4 18339926042699183955
5312544 6 17833829752243279671
613672 6 18337655447892294547
6433294 58 17833831947208898963
9709674 26 17906731406592760816

> <PUBCHEM_SHAPE_MULTIPOLES>
515.14
8.72
7.06
1.13
4.66
1.83
-0.11
-7.77
-0.53
-3.22
2.1
0.39
0.06
-1.13

> <PUBCHEM_SHAPE_SELFOVERLAP>
1121.612

> <PUBCHEM_SHAPE_VOLUME>
281.7

> <PUBCHEM_COORDINATE_TYPE>
2
5
10

$$$$
57446035
  -OEChem-05102415113D

 52 56  0     1  0  0  0  0  0999 V2000
   -2.4185    1.9065   -0.0664 N   0  0  2  0  0  0  0  0  0  0  0  0
    1.1644    2.7534    0.5940 N   0  0  0  0  0  0  0  0  0  0  0  0
    4.6933   -1.3113   -0.4253 N   0  0  0  0  0  0  0  0  0  0  0  0
    4.0659   -2.0645   -1.3439 N   0  0  0  0  0  0  0  0  0  0  0  0
   -1.4122   -3.6435    1.2623 C   0  0  0  0  0  0  0  0  0  0  0  0
   -0.1737   -4.3191    0.7508 C   0  0  0  0  0  0  0  0  0  0  0  0
   -0.0710   -3.2799    1.8285 C   0  0  0  0  0  0  0  0  0  0  0  0
   -2.1293   -2.6700    0.3912 C   0  0  0  0  0  0  0  0  0  0  0  0
   -0.1110    2.8094   -0.0900 C   0  0  1  0  0  0  0  0  0  0  0  0
   -1.0929    1.8287    0.5648 C   0  0  0  0  0  0  0  0  0  0  0  0
   -0.6552    4.2377   -0.0456 C   0  0  0  0  0  0  0  0  0  0  0  0
   -2.9784    3.2608    0.0404 C   0  0  0  0  0  0  0  0  0  0  0  0
   -2.0640    4.2892   -0.6264 C   0  0  0  0  0  0  0  0  0  0  0  0
   -3.3280    0.9285    0.5304 C   0  0  0  0  0  0  0  0  0  0  0  0
   -2.3830   -1.3775    0.8506 C   0  0  0  0  0  0  0  0  0  0  0  0
   -3.0544   -0.4667    0.0351 C   0  0  0  0  0  0  0  0  0  0  0  0
   -2.5471   -3.0516   -0.8837 C   0  0  0  0  0  0  0  0  0  0  0  0
   -3.4722   -0.8483   -1.2400 C   0  0  0  0  0  0  0  0  0  0  0  0
   -3.2188   -2.1409   -1.6992 C   0  0  0  0  0  0  0  0  0  0  0  0
    2.1010    1.7572    0.3850 C   0  0  0  0  0  0  0  0  0  0  0  0
    1.8254    0.7357   -0.5327 C   0  0  0  0  0  0  0  0  0  0  0  0
    3.3058    1.7832    1.0900 C   0  0  0  0  0  0  0  0  0  0  0  0
    2.7895   -0.2667   -0.7308 C   0  0  0  0  0  0  0  0  0  0  0  0
    3.9808   -0.2167   -0.0156 C   0  0  0  0  0  0  0  0  0  0  0  0
    4.2754    0.7925    0.9037 C   0  0  0  0  0  0  0  0  0  0  0  0
    2.9080   -1.4260   -1.5271 C   0  0  0  0  0  0  0  0  0  0  0  0
   -2.0456   -4.2491    1.9070 H   0  0  0  0  0  0  0  0  0  0  0  0
   -0.0108   -5.3530    1.0310 H   0  0  0  0  0  0  0  0  0  0  0  0
    0.2148   -4.0591   -0.2267 H   0  0  0  0  0  0  0  0  0  0  0  0
    0.3847   -2.3333    1.5628 H   0  0  0  0  0  0  0  0  0  0  0  0
    0.1609   -3.6161    2.8321 H   0  0  0  0  0  0  0  0  0  0  0  0
    0.0082    2.5695   -1.1549 H   0  0  0  0  0  0  0  0  0  0  0  0
   -0.6971    0.8130    0.4835 H   0  0  0  0  0  0  0  0  0  0  0  0
   -1.1665    2.0433    1.6409 H   0  0  0  0  0  0  0  0  0  0  0  0
    0.0041    4.9155   -0.6010 H   0  0  0  0  0  0  0  0  0  0  0  0
   -0.6780    4.6032    0.9896 H   0  0  0  0  0  0  0  0  0  0  0  0
   -3.1390    3.5349    1.0914 H   0  0  0  0  0  0  0  0  0  0  0  0
   -3.9533    3.3028   -0.4606 H   0  0  0  0  0  0  0  0  0  0  0  0
   -2.4807    5.2943   -0.4955 H   0  0  0  0  0  0  0  0  0  0  0  0
   -2.0219    4.0989   -1.7064 H   0  0  0  0  0  0  0  0  0  0  0  0
   -4.3677    1.1572    0.2563 H   0  0  0  0  0  0  0  0  0  0  0  0
   -3.3060    0.9690    1.6280 H   0  0  0  0  0  0  0  0  0  0  0  0
   -2.0611   -1.0812    1.8463 H   0  0  0  0  0  0  0  0  0  0  0  0
   -2.3602   -4.0566   -1.2530 H   0  0  0  0  0  0  0  0  0  0  0  0
    1.3555    3.4370    1.3184 H   0  0  0  0  0  0  0  0  0  0  0  0
   -3.9962   -0.1478   -1.8849 H   0  0  0  0  0  0  0  0  0  0  0  0
   -3.5449   -2.4382   -2.6916 H   0  0  0  0  0  0  0  0  0  0  0  0
    0.9122    0.6714   -1.1111 H   0  0  0  0  0  0  0  0  0  0  0  0
    3.5088    2.5821    1.8005 H   0  0  0  0  0  0  0  0  0  0  0  0
    5.2117    0.8110    1.4502 H   0  0  0  0  0  0  0  0  0  0  0  0
    2.1965   -1.8313   -2.2327 H   0  0  0  0  0  0  0  0  0  0  0  0
    5.6132   -1.6008   -0.1174 H   0  0  0  0  0  0  0  0  0  0  0  0
  1 10  1  0  0  0  0
  1 12  1  0  0  0  0
  1 14  1  0  0  0  0
  2  9  1  0  0  0  0
  2 20  1  0  0  0  0
  2 45  1  0  0  0  0
  3  4  1  0  0  0  0
  3 24  1  0  0  0  0
  3 52  1  0  0  0  0
  4 26  2  0  0  0  0
  5  6  1  0  0  0  0
  5  7  1  0  0  0  0
  5  8  1  0  0  0  0
  5 27  1  0  0  0  0
  6  7  1  0  0  0  0
  6 28  1  0  0  0  0
  6 29  1  0  0  0  0
  7 30  1  0  0  0  0
  7 31  1  0  0  0  0
  8 15  1  0  0  0  0
  8 17  2  0  0  0  0
  9 10  1  0  0  0  0
  9 11  1  0  0  0  0
  9 32  1  0  0  0  0
 10 33  1  0  0  0  0
 10 34  1  0  0  0  0
 11 13  1  0  0  0  0
 11 35  1  0  0  0  0
 11 36  1  0  0  0  0
 12 13  1  0  0  0  0
 12 37  1  0  0  0  0
 12 38  1  0  0  0  0
 13 39  1  0  0  0  0
 13 40  1  0  0  0  0
 14 16  1  0  0  0  0
 14 41  1  0  0  0  0
 14 42  1  0  0  0  0
 15 16  2  0  0  0  0
 15 43  1  0  0  0  0
 16 18  1  0  0  0  0
 17 19  1  0  0  0  0
 17 44  1  0  0  0  0
 18 19  2  0  0  0  0
 18 46  1  0  0  0  0
 19 47  1  0  0  0  0
 20 21  2  0  0  0  0
 20 22  1  0  0  0  0
 21 23  1  0  0  0  0
 21 48  1  0  0  0  0
 22 25  2  0  0  0  0
 22 49  1  0  0  0  0
 23 24  2  0  0  0  0
 23 26  1  0  0  0  0
 24 25  1  0  0  0  0
 25 50  1  0  0  0  0
 26 51  1  0  0  0  0
M  END
> <PUBCHEM_COMPOUND_CID>
57446035

> <PUBCHEM_CONFORMER_RMSD>
1

> <PUBCHEM_CONFORMER_DIVERSEORDER>
1
210
26
198
182
91
101
157
24
155
187
139
77
84
138
167
76
209
195
171
223
105
80
81
181
194
137
134
135
103
206
89
48
117
183
50
220
151
87
230
173
23
245
112
208
47
225
36
163
95
2
246
142
44
192
189
239
71
161
177
4
174
197
125
58
233
204
64
226
212
75
124
129
143
141
98
232
164
21
11
127
235
169
221
94
179
216
120
150
238
176
154
234
242
32
188
54
166
100
140
65
83
211
186
247
86
43
207
244
128
201
97
73
156
108
203
25
199
111
41
113
215
148
5
123
228
202
20
99
55
184
159
14
93
146
8
144
136
118
110
30
27
119
224
13
193
35
10
45
205
227
52
107
69
63
222
191
78
178
248
17
114
185
3
116
121
180
145
172
31
229
72
240
51
130
88
122
126
39
68
200
29
7
46
62
213
196
237
92
42
168
53
219
153
74
70
82
57
243
18
152
132
66
149
133
109
231
190
90
241
49
218
170
131
214
37
15
16
22
158
106
61
217
162
115
236
147
38
160
85
249
28
6
40
79
102
175
19
56
67
12
96
165
59
60
9
34
104
33

> <PUBCHEM_MMFF94_PARTIAL_CHARGES>
38
1 -0.81
10 0.27
12 0.27
14 0.41
15 -0.15
16 -0.14
17 -0.15
18 -0.15
19 -0.15
2 -0.87
20 0.1
21 -0.15
22 -0.15
24 -0.15
25 -0.15
26 0.14
27 0.1
28 0.1
29 0.1
3 0.3
30 0.1
31 0.1
4 -0.71
43 0.15
44 0.15
45 0.4
46 0.15
47 0.15
48 0.15
49 0.15
5 -0.07
50 0.15
51 0.15
52 0.27
6 -0.2
7 -0.2
8 -0.03
9 0.37

> <PUBCHEM_EFFECTIVE_ROTOR_COUNT>
6.8

> <PUBCHEM_PHARMACOPHORE_FEATURES>
9
1 1 cation
1 2 cation
1 2 donor
1 3 donor
1 4 acceptor
5 3 4 23 24 26 rings
6 1 9 10 11 12 13 rings
6 20 21 22 23 24 25 rings
6 8 15 16 17 18 19 rings

> <PUBCHEM_HEAVY_ATOM_COUNT>
26

> <PUBCHEM_ATOM_DEF_STEREO_COUNT>
0

> <PUBCHEM_ATOM_UDEF_STEREO_COUNT>
1

> <PUBCHEM_BOND_DEF_STEREO_COUNT>
0

> <PUBCHEM_BOND_UDEF_STEREO_COUNT>
0

> <PUBCHEM_ISOTOPIC_ATOM_COUNT>
0

> <PUBCHEM_COMPONENT_COUNT>
1

> <PUBCHEM_CACTVS_TAUTO_COUNT>
2

> <PUBCHEM_CONFORMER_ID>
036C8E9300000001

> <PUBCHEM_MMFF94_ENERGY>
64.7548

> <PUBCHEM_FEATURE_SELFOVERLAP>
45.763

> <PUBCHEM_SHAPE_FINGERPRINT>
1100329 8 17544192675729227250
11828532 37 16958147948771268091
12156800 1 16264264517223603573
12202916 173 17907830114761231938
12553582 1 18122075452848755301
12788726 201 18408881832730407522
13122387 1 18410572855654563442
1361 2 15384716194601331555
140371 6 18050281763351065497
14251757 5 18265078897625524678
14363568 33 16894294957679867464
14659021 117 18410564111517516600
14725015 67 18411132537217253771
15322534 239 17976272239816102918
17627616 140 17758959225257013771
19315092 285 15909936187872279703
19930381 70 17691967485163278135
20600515 1 17824808164979641260
20764821 26 18191880117618081002
21987440 362 15878900036942915309
23559900 14 17545026569483419425
238 59 16611927211898057263
3027735 51 18264763277648143833
3298306 158 17904485095478286965
338550 245 17756996610313707330
3493558 16 15944588482591187524
445580 102 17400081266902286258
469060 322 17268590564284444068
474144 1 16962680728384763194
5265222 85 18047498654818759452
5309563 4 17402055994307858987
57091435 65 17615696128659419147
9709674 26 18341894125478814472

> <PUBCHEM_SHAPE_MULTIPOLES>
515.14
7.81
6.51
1.39
6.25
2.36
-0.13
-2.97
-1.47
-3.97
0.88
-0.08
-1.2
1.14

> <PUBCHEM_SHAPE_SELFOVERLAP>
1121.641

> <PUBCHEM_SHAPE_VOLUME>
282.2

> <PUBCHEM_COORDINATE_TYPE>
2
5
10

$$$$
44595808
  -OEChem-05102415113D

 49 52  0     1  0  0  0  0  0999 V2000
    5.1353   -2.1324    0.0872 F   0  0  0  0  0  0  0  0  0  0  0  0
    3.1241   -1.5469   -0.5355 F   0  0  0  0  0  0  0  0  0  0  0  0
    4.8910   -0.8492   -1.6649 F   0  0  0  0  0  0  0  0  0  0  0  0
    4.5022    0.0086    0.4195 O   0  0  0  0  0  0  0  0  0  0  0  0
   -1.0127    3.1013   -0.1369 N   0  0  1  0  0  0  0  0  0  0  0  0
   -3.5800    0.4021    0.1450 N   0  0  0  0  0  0  0  0  0  0  0  0
   -1.5372   -4.6815    0.2117 N   0  0  0  0  0  0  0  0  0  0  0  0
   -0.3660   -4.5703   -0.4370 N   0  0  0  0  0  0  0  0  0  0  0  0
   -2.8509    1.4801   -0.4882 C   0  0  1  0  0  0  0  0  0  0  0  0
   -3.8108    2.6180   -0.8350 C   0  0  0  0  0  0  0  0  0  0  0  0
   -1.7376    1.9641    0.4488 C   0  0  0  0  0  0  0  0  0  0  0  0
   -3.0375    3.8212   -1.3633 C   0  0  0  0  0  0  0  0  0  0  0  0
   -1.9182    4.2277   -0.4035 C   0  0  0  0  0  0  0  0  0  0  0  0
    0.0794    3.5197    0.7416 C   0  0  0  0  0  0  0  0  0  0  0  0
   -3.1235   -0.9033    0.1983 C   0  0  0  0  0  0  0  0  0  0  0  0
    1.2569    2.5853    0.6564 C   0  0  0  0  0  0  0  0  0  0  0  0
   -1.8914   -1.2252   -0.3847 C   0  0  0  0  0  0  0  0  0  0  0  0
   -3.8954   -1.8793    0.8311 C   0  0  0  0  0  0  0  0  0  0  0  0
    1.7148    1.9332    1.8013 C   0  0  0  0  0  0  0  0  0  0  0  0
    1.8897    2.3715   -0.5682 C   0  0  0  0  0  0  0  0  0  0  0  0
   -1.4457   -2.5559   -0.3197 C   0  0  0  0  0  0  0  0  0  0  0  0
   -2.2342   -3.5081    0.3165 C   0  0  0  0  0  0  0  0  0  0  0  0
   -3.4652   -3.2082    0.9039 C   0  0  0  0  0  0  0  0  0  0  0  0
    2.8055    1.0675    1.7218 C   0  0  0  0  0  0  0  0  0  0  0  0
    2.9806    1.5059   -0.6478 C   0  0  0  0  0  0  0  0  0  0  0  0
    3.4385    0.8539    0.4972 C   0  0  0  0  0  0  0  0  0  0  0  0
   -0.3138   -3.2758   -0.7588 C   0  0  0  0  0  0  0  0  0  0  0  0
    4.4022   -1.1239   -0.4368 C   0  0  0  0  0  0  0  0  0  0  0  0
   -2.4228    1.1507   -1.4441 H   0  0  0  0  0  0  0  0  0  0  0  0
   -4.3821    2.9174    0.0537 H   0  0  0  0  0  0  0  0  0  0  0  0
   -4.5441    2.2867   -1.5801 H   0  0  0  0  0  0  0  0  0  0  0  0
   -2.1699    2.2447    1.4204 H   0  0  0  0  0  0  0  0  0  0  0  0
   -1.0413    1.1449    0.6528 H   0  0  0  0  0  0  0  0  0  0  0  0
   -3.7221    4.6641   -1.5112 H   0  0  0  0  0  0  0  0  0  0  0  0
   -2.6108    3.5800   -2.3453 H   0  0  0  0  0  0  0  0  0  0  0  0
   -1.3621    5.0526   -0.8654 H   0  0  0  0  0  0  0  0  0  0  0  0
   -2.3522    4.6087    0.5303 H   0  0  0  0  0  0  0  0  0  0  0  0
    0.4565    4.5066    0.4387 H   0  0  0  0  0  0  0  0  0  0  0  0
   -0.2640    3.6395    1.7779 H   0  0  0  0  0  0  0  0  0  0  0  0
   -4.4371    0.6228    0.6404 H   0  0  0  0  0  0  0  0  0  0  0  0
   -1.2573   -0.5103   -0.8939 H   0  0  0  0  0  0  0  0  0  0  0  0
   -4.8513   -1.6171    1.2804 H   0  0  0  0  0  0  0  0  0  0  0  0
    1.2304    2.0889    2.7615 H   0  0  0  0  0  0  0  0  0  0  0  0
    1.5487    2.8774   -1.4676 H   0  0  0  0  0  0  0  0  0  0  0  0
   -4.0633   -3.9677    1.3949 H   0  0  0  0  0  0  0  0  0  0  0  0
    3.1571    0.5615    2.6167 H   0  0  0  0  0  0  0  0  0  0  0  0
    3.4691    1.3546   -1.6064 H   0  0  0  0  0  0  0  0  0  0  0  0
    0.5470   -2.9086   -1.2998 H   0  0  0  0  0  0  0  0  0  0  0  0
   -1.8051   -5.5930    0.5613 H   0  0  0  0  0  0  0  0  0  0  0  0
  1 28  1  0  0  0  0
  2 28  1  0  0  0  0
  3 28  1  0  0  0  0
  4 26  1  0  0  0  0
  4 28  1  0  0  0  0
  5 11  1  0  0  0  0
  5 13  1  0  0  0  0
  5 14  1  0  0  0  0
  6  9  1  0  0  0  0
  6 15  1  0  0  0  0
  6 40  1  0  0  0  0
  7  8  1  0  0  0  0
  7 22  1  0  0  0  0
  7 49  1  0  0  0  0
  8 27  2  0  0  0  0
  9 10  1  0  0  0  0
  9 11  1  0  0  0  0
  9 29  1  0  0  0  0
 10 12  1  0  0  0  0
 10 30  1  0  0  0  0
 10 31  1  0  0  0  0
 11 32  1  0  0  0  0
 11 33  1  0  0  0  0
 12 13  1  0  0  0  0
 12 34  1  0  0  0  0
 12 35  1  0  0  0  0
 13 36  1  0  0  0  0
 13 37  1  0  0  0  0
 14 16  1  0  0  0  0
 14 38  1  0  0  0  0
 14 39  1  0  0  0  0
 15 17  2  0  0  0  0
 15 18  1  0  0  0  0
 16 19  2  0  0  0  0
 16 20  1  0  0  0  0
 17 21  1  0  0  0  0
 17 41  1  0  0  0  0
 18 23  2  0  0  0  0
 18 42  1  0  0  0  0
 19 24  1  0  0  0  0
 19 43  1  0  0  0  0
 20 25  2  0  0  0  0
 20 44  1  0  0  0  0
 21 22  2  0  0  0  0
 21 27  1  0  0  0  0
 22 23  1  0  0  0  0
 23 45  1  0  0  0  0
 24 26  2  0  0  0  0
 24 46  1  0  0  0  0
 25 26  1  0  0  0  0
 25 47  1  0  0  0  0
 27 48  1  0  0  0  0
M  END
> <PUBCHEM_COMPOUND_CID>
44595808

> <PUBCHEM_CONFORMER_RMSD>
1

> <PUBCHEM_CONFORMER_DIVERSEORDER>
1
71
28
155
102
58
151
149
183
11
115
59
117
125
39
119
132
54
42
123
130
67
97
136
57
152
124
76
43
78
101
162
147
129
116
98
35
29
38
145
157
21
106
166
172
15
121
133
65
7
126
82
114
72
140
86
17
88
165
144
143
96
33
52
19
131
93
26
168
20
12
108
92
75
40
142
104
84
94
100
77
69
8
179
134
47
14
81
169
41
164
178
95
174
103
34
112
83
120
150
79
153
128
89
181
18
154
141
24
5
109
159
173
107
45
156
9
122
23
180
70
68
110
176
163
137
135
27
63
32
118
48
6
148
170
139
30
161
51
66
49
87
22
25
10
175
99
53
4
2
73
167
36
160
3
60
146
62
90
127
158
113
111
74
31
46
64
61
177
16
138
80
182
55
37
50
13
171
91
105
56
85
44

> <PUBCHEM_MMFF94_PARTIAL_CHARGES>
35
1 -0.34
11 0.27
13 0.27
14 0.41
15 0.1
16 -0.14
17 -0.15
18 -0.15
19 -0.15
2 -0.34
20 -0.15
22 -0.15
23 -0.15
24 -0.15
25 -0.15
26 0.08
27 0.14
28 1.3
3 -0.34
4 -0.36
40 0.4
41 0.15
42 0.15
43 0.15
44 0.15
45 0.15
46 0.15
47 0.15
48 0.15
49 0.27
5 -0.81
6 -0.87
7 0.3
8 -0.71
9 0.37

> <PUBCHEM_EFFECTIVE_ROTOR_COUNT>
7.2

> <PUBCHEM_PHARMACOPHORE_FEATURES>
10
1 4 acceptor
1 5 cation
1 6 cation
1 6 donor
1 7 donor
1 8 acceptor
5 7 8 21 22 27 rings
6 15 17 18 21 22 23 rings
6 16 19 20 24 25 26 rings
6 5 9 10 11 12 13 rings

> <PUBCHEM_HEAVY_ATOM_COUNT>
28

> <PUBCHEM_ATOM_DEF_STEREO_COUNT>
0

> <PUBCHEM_ATOM_UDEF_STEREO_COUNT>
1

> <PUBCHEM_BOND_DEF_STEREO_COUNT>
0

> <PUBCHEM_BOND_UDEF_STEREO_COUNT>
0

> <PUBCHEM_ISOTOPIC_ATOM_COUNT>
0

> <PUBCHEM_COMPONENT_COUNT>
1

> <PUBCHEM_CACTVS_TAUTO_COUNT>
2

> <PUBCHEM_CONFORMER_ID>
02A87A6000000001

> <PUBCHEM_MMFF94_ENERGY>
73.4721

> <PUBCHEM_FEATURE_SELFOVERLAP>
50.837

> <PUBCHEM_SHAPE_FINGERPRINT>
12156800 1 15653588062596978921
12422481 6 18194424379704934707
12553582 1 17832699454442782981
12712778 12 18266443340211185362
13122387 1 17836367051322982202
13402501 40 18343021056014167549
13785724 45 17976557310007221667
14251757 5 18337967739660099198
14725015 67 18411692188809826019
15320294 125 17680119925382619026
15351339 4 17546447778293557402
15927050 60 18052529977521277501
16067689 391 16695007964377579494
16719943 64 18193832639979052946
17627616 140 17472986099264186446
19930381 70 17328582817872530641
20531524 4 18055094080948354854
20764821 26 18411421674372831279
20775438 99 17191739129935866575
20775530 9 18268997664098117882
21133410 230 17974603250237511227
21344244 246 17833252135678461677
23379529 103 18339934800221974400
3298306 158 18051962637430323381
340366 18 18113902606821232188
474144 1 17607233269433760986
5085150 59 17978208488460951538
508706 21 18410849958417695119
5265222 85 18265341612143622372
5309563 4 17401202773147502735
56633871 153 18051701233173722059
6287921 2 17116638194448028763
6433294 58 18124035899308382912
70634741 139 18341063934982691164
7097593 13 17330558056494749473

> <PUBCHEM_SHAPE_MULTIPOLES>
528.61
8.7
7.14
1.22
7.09
0.35
-0.18
5.19
0.09
-5.36
1.45
0.63
-0.36
2.29

> <PUBCHEM_SHAPE_SELFOVERLAP>
1149.237

> <PUBCHEM_SHAPE_VOLUME>
289.5

> <PUBCHEM_COORDINATE_TYPE>
2
5
10

$$$$
57446036
  -OEChem-05102415113D

 54 57  0     1  0  0  0  0  0999 V2000
   -0.6392    2.9749   -0.0981 N   0  0  2  0  0  0  0  0  0  0  0  0
    2.8286    1.6511    0.3621 N   0  0  0  0  0  0  0  0  0  0  0  0
    3.2586   -3.7972   -0.0186 N   0  0  0  0  0  0  0  0  0  0  0  0
    2.2182   -4.1528   -0.7905 N   0  0  0  0  0  0  0  0  0  0  0  0
    1.7505    2.3524   -0.3037 C   0  0  1  0  0  0  0  0  0  0  0  0
    0.4616    2.2202    0.5185 C   0  0  0  0  0  0  0  0  0  0  0  0
    2.1310    3.8217   -0.4892 C   0  0  0  0  0  0  0  0  0  0  0  0
    0.9530    4.6103   -1.0505 C   0  0  0  0  0  0  0  0  0  0  0  0
   -0.3071    4.4019   -0.2096 C   0  0  0  0  0  0  0  0  0  0  0  0
   -1.8739    2.7953    0.6653 C   0  0  0  0  0  0  0  0  0  0  0  0
   -2.5041    1.4530    0.4045 C   0  0  0  0  0  0  0  0  0  0  0  0
    2.9967    0.2792    0.3081 C   0  0  0  0  0  0  0  0  0  0  0  0
   -3.1998    1.2286   -0.7837 C   0  0  0  0  0  0  0  0  0  0  0  0
   -2.3917    0.4337    1.3500 C   0  0  0  0  0  0  0  0  0  0  0  0
    2.0886   -0.4966   -0.4236 C   0  0  0  0  0  0  0  0  0  0  0  0
    4.0667   -0.3125    0.9819 C   0  0  0  0  0  0  0  0  0  0  0  0
   -3.6709   -1.0341   -0.0802 C   0  0  0  0  0  0  0  0  0  0  0  0
   -3.7832   -0.0149   -1.0260 C   0  0  0  0  0  0  0  0  0  0  0  0
   -2.9752   -0.8098    1.1077 C   0  0  0  0  0  0  0  0  0  0  0  0
   -4.2921   -2.3646   -0.3410 C   0  0  0  0  0  0  0  0  0  0  0  0
    2.2768   -1.8882   -0.4662 C   0  0  0  0  0  0  0  0  0  0  0  0
    3.3506   -2.4514    0.2139 C   0  0  0  0  0  0  0  0  0  0  0  0
    4.2672   -1.6964    0.9489 C   0  0  0  0  0  0  0  0  0  0  0  0
   -5.3831   -2.7169    0.6880 C   0  0  0  0  0  0  0  0  0  0  0  0
   -3.2510   -3.4981   -0.4072 C   0  0  0  0  0  0  0  0  0  0  0  0
    1.6231   -2.9888   -1.0608 C   0  0  0  0  0  0  0  0  0  0  0  0
    1.5950    1.9555   -1.3156 H   0  0  0  0  0  0  0  0  0  0  0  0
    0.1928    1.1639    0.6010 H   0  0  0  0  0  0  0  0  0  0  0  0
    0.6408    2.5716    1.5450 H   0  0  0  0  0  0  0  0  0  0  0  0
    2.9951    3.9115   -1.1585 H   0  0  0  0  0  0  0  0  0  0  0  0
    2.4336    4.2597    0.4713 H   0  0  0  0  0  0  0  0  0  0  0  0
    1.2041    5.6765   -1.0823 H   0  0  0  0  0  0  0  0  0  0  0  0
    0.7616    4.2962   -2.0845 H   0  0  0  0  0  0  0  0  0  0  0  0
   -1.1293    4.9401   -0.6968 H   0  0  0  0  0  0  0  0  0  0  0  0
   -0.1671    4.8487    0.7836 H   0  0  0  0  0  0  0  0  0  0  0  0
   -2.6175    3.5500    0.3721 H   0  0  0  0  0  0  0  0  0  0  0  0
   -1.7144    2.9535    1.7407 H   0  0  0  0  0  0  0  0  0  0  0  0
    3.4538    2.1804    0.9603 H   0  0  0  0  0  0  0  0  0  0  0  0
   -3.2937    2.0147   -1.5283 H   0  0  0  0  0  0  0  0  0  0  0  0
   -1.8521    0.5949    2.2795 H   0  0  0  0  0  0  0  0  0  0  0  0
    1.2476   -0.0895   -0.9706 H   0  0  0  0  0  0  0  0  0  0  0  0
    4.7660    0.3006    1.5471 H   0  0  0  0  0  0  0  0  0  0  0  0
   -4.3210   -0.1729   -1.9570 H   0  0  0  0  0  0  0  0  0  0  0  0
   -2.8745   -1.5894    1.8576 H   0  0  0  0  0  0  0  0  0  0  0  0
   -4.7864   -2.3390   -1.3218 H   0  0  0  0  0  0  0  0  0  0  0  0
    5.0977   -2.1578    1.4715 H   0  0  0  0  0  0  0  0  0  0  0  0
   -4.9711   -2.8420    1.6951 H   0  0  0  0  0  0  0  0  0  0  0  0
   -5.8818   -3.6527    0.4132 H   0  0  0  0  0  0  0  0  0  0  0  0
   -6.1446   -1.9303    0.7322 H   0  0  0  0  0  0  0  0  0  0  0  0
   -2.7547   -3.6554    0.5565 H   0  0  0  0  0  0  0  0  0  0  0  0
   -2.4772   -3.2729   -1.1497 H   0  0  0  0  0  0  0  0  0  0  0  0
   -3.7283   -4.4413   -0.6944 H   0  0  0  0  0  0  0  0  0  0  0  0
    0.7367   -2.9891   -1.6794 H   0  0  0  0  0  0  0  0  0  0  0  0
    3.8736   -4.5266    0.3202 H   0  0  0  0  0  0  0  0  0  0  0  0
  1  6  1  0  0  0  0
  1  9  1  0  0  0  0
  1 10  1  0  0  0  0
  2  5  1  0  0  0  0
  2 12  1  0  0  0  0
  2 38  1  0  0  0  0
  3  4  1  0  0  0  0
  3 22  1  0  0  0  0
  3 54  1  0  0  0  0
  4 26  2  0  0  0  0
  5  6  1  0  0  0  0
  5  7  1  0  0  0  0
  5 27  1  0  0  0  0
  6 28  1  0  0  0  0
  6 29  1  0  0  0  0
  7  8  1  0  0  0  0
  7 30  1  0  0  0  0
  7 31  1  0  0  0  0
  8  9  1  0  0  0  0
  8 32  1  0  0  0  0
  8 33  1  0  0  0  0
  9 34  1  0  0  0  0
  9 35  1  0  0  0  0
 10 11  1  0  0  0  0
 10 36  1  0  0  0  0
 10 37  1  0  0  0  0
 11 13  2  0  0  0  0
 11 14  1  0  0  0  0
 12 15  2  0  0  0  0
 12 16  1  0  0  0  0
 13 18  1  0  0  0  0
 13 39  1  0  0  0  0
 14 19  2  0  0  0  0
 14 40  1  0  0  0  0
 15 21  1  0  0  0  0
 15 41  1  0  0  0  0
 16 23  2  0  0  0  0
 16 42  1  0  0  0  0
 17 18  2  0  0  0  0
 17 19  1  0  0  0  0
 17 20  1  0  0  0  0
 18 43  1  0  0  0  0
 19 44  1  0  0  0  0
 20 24  1  0  0  0  0
 20 25  1  0  0  0  0
 20 45  1  0  0  0  0
 21 22  2  0  0  0  0
 21 26  1  0  0  0  0
 22 23  1  0  0  0  0
 23 46  1  0  0  0  0
 24 47  1  0  0  0  0
 24 48  1  0  0  0  0
 24 49  1  0  0  0  0
 25 50  1  0  0  0  0
 25 51  1  0  0  0  0
 25 52  1  0  0  0  0
 26 53  1  0  0  0  0
M  END
> <PUBCHEM_COMPOUND_CID>
57446036

> <PUBCHEM_CONFORMER_RMSD>
0.8

> <PUBCHEM_CONFORMER_DIVERSEORDER>
1
155
55
62
212
124
79
69
211
200
89
110
40
152
73
93
60
76
65
31
182
68
41
146
218
94
24
213
99
153
134
42
149
17
82
133
204
158
120
205
188
208
121
43
168
90
136
184
112
6
151
87
177
143
140
16
30
148
123
176
8
220
105
84
163
66
209
108
196
26
106
224
144
98
67
95
194
185
193
206
37
217
171
198
225
46
33
150
137
222
167
154
64
116
25
157
122
4
113
114
216
164
61
169
104
131
191
210
141
180
142
101
117
71
74
159
170
15
203
135
189
103
219
214
192
51
34
201
173
130
29
160
187
52
72
175
91
183
85
50
199
70
14
32
53
80
223
81
174
179
58
47
18
178
100
139
10
77
125
166
5
162
48
172
78
147
22
195
221
2
23
129
111
128
197
54
138
215
161
39
88
59
145
9
83
156
35
165
119
126
20
190
102
27
12
109
75
132
19
107
202
11
28
127
49
97
118
181
207
3
45
63
36
186
86
57
96
115
92
7
13
38
21
56
44

> <PUBCHEM_MMFF94_PARTIAL_CHARGES>
31
1 -0.81
10 0.41
11 -0.14
12 0.1
13 -0.15
14 -0.15
15 -0.15
16 -0.15
17 -0.14
18 -0.15
19 -0.15
2 -0.87
20 0.14
22 -0.15
23 -0.15
26 0.14
3 0.3
38 0.4
39 0.15
4 -0.71
40 0.15
41 0.15
42 0.15
43 0.15
44 0.15
46 0.15
5 0.37
53 0.15
54 0.27
6 0.27
9 0.27

> <PUBCHEM_EFFECTIVE_ROTOR_COUNT>
6.2

> <PUBCHEM_PHARMACOPHORE_FEATURES>
10
1 1 cation
1 2 cation
1 2 donor
1 3 donor
1 4 acceptor
3 20 24 25 hydrophobe
5 3 4 21 22 26 rings
6 1 5 6 7 8 9 rings
6 11 13 14 17 18 19 rings
6 12 15 16 21 22 23 rings

> <PUBCHEM_HEAVY_ATOM_COUNT>
26

> <PUBCHEM_ATOM_DEF_STEREO_COUNT>
0

> <PUBCHEM_ATOM_UDEF_STEREO_COUNT>
1

> <PUBCHEM_BOND_DEF_STEREO_COUNT>
0

> <PUBCHEM_BOND_UDEF_STEREO_COUNT>
0

> <PUBCHEM_ISOTOPIC_ATOM_COUNT>
0

> <PUBCHEM_COMPONENT_COUNT>
1

> <PUBCHEM_CACTVS_TAUTO_COUNT>
2

> <PUBCHEM_CONFORMER_ID>
036C8E9400000001

> <PUBCHEM_MMFF94_ENERGY>
63.3322

> <PUBCHEM_FEATURE_SELFOVERLAP>
50.837

> <PUBCHEM_SHAPE_FINGERPRINT>
10940486 97 17541960684852954846
11014199 57 18338804415973538483
12107183 9 18340220618064951273
12156800 1 10294329743021545173
12553582 1 18265912284125916320
13122387 1 18413110537081469951
138480 1 18410293648420364173
14117953 113 18342458115072953799
14251757 5 17475538087395994102
14659021 117 17904469719590261106
14863182 85 18049724310707999640
15110567 62 17907019835079137257
161222 619 17831605410462142435
16719943 64 16680071012366016103
17138139 8 16692448803596983615
19930381 70 18338234989642178931
20028762 73 18055642973716376572
20775438 99 17834067028186671877
20775530 9 18410289224788782519
21133410 52 18052521460542938046
21133410 62 16823874545173604639
23559900 14 18338506543196865593
3027735 51 17258768227608162973
4280585 95 18262503802654223416
463206 1 18337392643069815617
508706 21 17908981007030035590
5265222 85 16825052642053930068
5309563 4 18339363066917884595
56633871 153 18268440044700245417
613672 6 18265876012994875551
6433294 58 18121780796865456479
9709674 26 17979632334586250120

> <PUBCHEM_SHAPE_MULTIPOLES>
515.14
9.18
6.93
1.08
7.04
2.15
-0.07
-8.55
-1.25
-3.95
1.82
0.19
-0.04
-0.35

> <PUBCHEM_SHAPE_SELFOVERLAP>
1108.375

> <PUBCHEM_SHAPE_VOLUME>
284.5

> <PUBCHEM_COORDINATE_TYPE>
2
5
10

$$$$
57446037
  -OEChem-05102415113D

 51 54  0     1  0  0  0  0  0999 V2000
   -2.0799    1.8337    0.0466 N   0  0  2  0  0  0  0  0  0  0  0  0
    1.5944    2.4697    0.3377 N   0  0  0  0  0  0  0  0  0  0  0  0
    4.7262   -2.0015   -0.1253 N   0  0  0  0  0  0  0  0  0  0  0  0
    3.9800   -2.8476   -0.8547 N   0  0  0  0  0  0  0  0  0  0  0  0
    0.2813    2.5146   -0.2715 C   0  0  1  0  0  0  0  0  0  0  0  0
   -0.7223    1.7537    0.6051 C   0  0  0  0  0  0  0  0  0  0  0  0
   -0.1495    3.9701   -0.4564 C   0  0  0  0  0  0  0  0  0  0  0  0
   -1.5883    4.0404   -0.9559 C   0  0  0  0  0  0  0  0  0  0  0  0
   -2.5274    3.2289   -0.0627 C   0  0  0  0  0  0  0  0  0  0  0  0
   -3.0154    1.0588    0.8617 C   0  0  0  0  0  0  0  0  0  0  0  0
   -2.8835   -0.4203    0.6132 C   0  0  0  0  0  0  0  0  0  0  0  0
    2.4363    1.3749    0.2603 C   0  0  0  0  0  0  0  0  0  0  0  0
   -3.4103   -1.0044   -0.5387 C   0  0  0  0  0  0  0  0  0  0  0  0
   -2.2222   -1.2085    1.5550 C   0  0  0  0  0  0  0  0  0  0  0  0
    2.0198    0.2353   -0.4396 C   0  0  0  0  0  0  0  0  0  0  0  0
    3.6868    1.4202    0.8792 C   0  0  0  0  0  0  0  0  0  0  0  0
   -3.2756   -2.3769   -0.7488 C   0  0  0  0  0  0  0  0  0  0  0  0
    2.8893   -0.8660   -0.5067 C   0  0  0  0  0  0  0  0  0  0  0  0
   -2.0877   -2.5809    1.3451 C   0  0  0  0  0  0  0  0  0  0  0  0
   -2.6145   -3.1651    0.1932 C   0  0  0  0  0  0  0  0  0  0  0  0
   -4.1223   -0.1808   -1.5611 C   0  0  0  0  0  0  0  0  0  0  0  0
    4.1290   -0.7942    0.1186 C   0  0  0  0  0  0  0  0  0  0  0  0
    4.5635    0.3319    0.8212 C   0  0  0  0  0  0  0  0  0  0  0  0
    2.8632   -2.1534   -1.0848 C   0  0  0  0  0  0  0  0  0  0  0  0
   -2.4710   -4.6326   -0.0307 C   0  0  0  0  0  0  0  0  0  0  0  0
    0.3057    2.0813   -1.2802 H   0  0  0  0  0  0  0  0  0  0  0  0
   -0.4103    0.7093    0.6865 H   0  0  0  0  0  0  0  0  0  0  0  0
   -0.7019    2.1602    1.6268 H   0  0  0  0  0  0  0  0  0  0  0  0
    0.5175    4.4796   -1.1622 H   0  0  0  0  0  0  0  0  0  0  0  0
   -0.0707    4.5131    0.4948 H   0  0  0  0  0  0  0  0  0  0  0  0
   -1.9179    5.0851   -0.9865 H   0  0  0  0  0  0  0  0  0  0  0  0
   -1.6380    3.6595   -1.9840 H   0  0  0  0  0  0  0  0  0  0  0  0
   -3.5296    3.2657   -0.5071 H   0  0  0  0  0  0  0  0  0  0  0  0
   -2.5918    3.6970    0.9285 H   0  0  0  0  0  0  0  0  0  0  0  0
   -4.0540    1.3427    0.6468 H   0  0  0  0  0  0  0  0  0  0  0  0
   -2.8913    1.2848    1.9303 H   0  0  0  0  0  0  0  0  0  0  0  0
    1.8877    3.2512    0.9139 H   0  0  0  0  0  0  0  0  0  0  0  0
   -1.8062   -0.7685    2.4575 H   0  0  0  0  0  0  0  0  0  0  0  0
    1.0656    0.1497   -0.9442 H   0  0  0  0  0  0  0  0  0  0  0  0
    3.9996    2.3112    1.4201 H   0  0  0  0  0  0  0  0  0  0  0  0
   -3.6858   -2.8377   -1.6443 H   0  0  0  0  0  0  0  0  0  0  0  0
   -1.5717   -3.1843    2.0872 H   0  0  0  0  0  0  0  0  0  0  0  0
   -5.0001    0.3092   -1.1282 H   0  0  0  0  0  0  0  0  0  0  0  0
   -3.4557    0.5698   -1.9960 H   0  0  0  0  0  0  0  0  0  0  0  0
   -4.4851   -0.7982   -2.3908 H   0  0  0  0  0  0  0  0  0  0  0  0
    5.5352    0.3652    1.3012 H   0  0  0  0  0  0  0  0  0  0  0  0
    2.0749   -2.6133   -1.6640 H   0  0  0  0  0  0  0  0  0  0  0  0
   -3.3453   -5.1600    0.3636 H   0  0  0  0  0  0  0  0  0  0  0  0
   -2.3739   -4.8604   -1.0977 H   0  0  0  0  0  0  0  0  0  0  0  0
   -1.5746   -5.0234    0.4626 H   0  0  0  0  0  0  0  0  0  0  0  0
    5.6414   -2.3108    0.1773 H   0  0  0  0  0  0  0  0  0  0  0  0
  1  6  1  0  0  0  0
  1  9  1  0  0  0  0
  1 10  1  0  0  0  0
  2  5  1  0  0  0  0
  2 12  1  0  0  0  0
  2 37  1  0  0  0  0
  3  4  1  0  0  0  0
  3 22  1  0  0  0  0
  3 51  1  0  0  0  0
  4 24  2  0  0  0  0
  5  6  1  0  0  0  0
  5  7  1  0  0  0  0
  5 26  1  0  0  0  0
  6 27  1  0  0  0  0
  6 28  1  0  0  0  0
  7  8  1  0  0  0  0
  7 29  1  0  0  0  0
  7 30  1  0  0  0  0
  8  9  1  0  0  0  0
  8 31  1  0  0  0  0
  8 32  1  0  0  0  0
  9 33  1  0  0  0  0
  9 34  1  0  0  0  0
 10 11  1  0  0  0  0
 10 35  1  0  0  0  0
 10 36  1  0  0  0  0
 11 13  2  0  0  0  0
 11 14  1  0  0  0  0
 12 15  2  0  0  0  0
 12 16  1  0  0  0  0
 13 17  1  0  0  0  0
 13 21  1  0  0  0  0
 14 19  2  0  0  0  0
 14 38  1  0  0  0  0
 15 18  1  0  0  0  0
 15 39  1  0  0  0  0
 16 23  2  0  0  0  0
 16 40  1  0  0  0  0
 17 20  2  0  0  0  0
 17 41  1  0  0  0  0
 18 22  2  0  0  0  0
 18 24  1  0  0  0  0
 19 20  1  0  0  0  0
 19 42  1  0  0  0  0
 20 25  1  0  0  0  0
 21 43  1  0  0  0  0
 21 44  1  0  0  0  0
 21 45  1  0  0  0  0
 22 23  1  0  0  0  0
 23 46  1  0  0  0  0
 24 47  1  0  0  0  0
 25 48  1  0  0  0  0
 25 49  1  0  0  0  0
 25 50  1  0  0  0  0
M  END
> <PUBCHEM_COMPOUND_CID>
57446037

> <PUBCHEM_CONFORMER_RMSD>
0.8

> <PUBCHEM_CONFORMER_DIVERSEORDER>
1
64
148
142
4
91
233
176
51
60
155
223
161
153
72
166
164
86
83
22
145
48
213
89
3
101
239
126
242
220
127
58
147
49
204
110
187
40
44
88
17
236
85
146
90
200
138
158
214
46
152
109
179
202
206
241
151
163
37
120
13
117
56
34
121
119
184
65
189
203
229
130
128
162
8
192
227
226
141
96
134
111
95
208
108
186
32
31
238
165
144
77
235
28
113
104
230
169
123
196
177
12
114
182
172
237
244
14
143
125
183
67
102
195
69
45
174
149
225
59
61
105
199
47
167
68
7
222
240
205
62
180
175
231
81
185
66
210
76
224
94
115
232
41
181
243
92
24
124
97
93
219
39
178
140
218
21
160
234
71
11
228
194
33
79
82
212
2
154
173
15
188
84
52
55
132
25
168
19
207
106
57
100
221
42
26
36
112
159
80
131
209
170
137
116
211
190
38
70
35
10
215
107
171
20
216
27
53
50
191
75
135
43
16
150
129
9
197
118
63
198
98
23
193
201
122
74
133
136
87
18
103
156
54
139
6
5
73
157
217
99
78
30
29

> <PUBCHEM_MMFF94_PARTIAL_CHARGES>
31
1 -0.81
10 0.41
11 -0.14
12 0.1
13 -0.14
14 -0.15
15 -0.15
16 -0.15
17 -0.15
19 -0.15
2 -0.87
20 -0.14
21 0.14
22 -0.15
23 -0.15
24 0.14
25 0.14
3 0.3
37 0.4
38 0.15
39 0.15
4 -0.71
40 0.15
41 0.15
42 0.15
46 0.15
47 0.15
5 0.37
51 0.27
6 0.27
9 0.27

> <PUBCHEM_EFFECTIVE_ROTOR_COUNT>
5.2

> <PUBCHEM_PHARMACOPHORE_FEATURES>
9
1 1 cation
1 2 cation
1 2 donor
1 3 donor
1 4 acceptor
5 3 4 18 22 24 rings
6 1 5 6 7 8 9 rings
6 11 13 14 17 19 20 rings
6 12 15 16 18 22 23 rings

> <PUBCHEM_HEAVY_ATOM_COUNT>
25

> <PUBCHEM_ATOM_DEF_STEREO_COUNT>
0

> <PUBCHEM_ATOM_UDEF_STEREO_COUNT>
1

> <PUBCHEM_BOND_DEF_STEREO_COUNT>
0

> <PUBCHEM_BOND_UDEF_STEREO_COUNT>
0

> <PUBCHEM_ISOTOPIC_ATOM_COUNT>
0

> <PUBCHEM_COMPONENT_COUNT>
1

> <PUBCHEM_CACTVS_TAUTO_COUNT>
2

> <PUBCHEM_CONFORMER_ID>
036C8E9500000001

> <PUBCHEM_MMFF94_ENERGY>
63.1107

> <PUBCHEM_FEATURE_SELFOVERLAP>
45.763

> <PUBCHEM_SHAPE_FINGERPRINT>
10483366 6 18193257626042759493
10764073 3 17825139024382008411
107951 10 17099766846029890177
10940486 97 18117292354647250780
1100329 8 17183900272890601970
11014199 57 18266748063176209131
11135926 11 18048037664187096869
11136131 41 18264476456233670338
11552529 35 17989488523957388056
12156800 1 16261725719099996719
12422481 6 18127156129341732601
12553582 1 18265069078892565441
13122387 1 16969714282539433166
13402501 40 18125165939510750052
1361 2 16176505252996971171
138480 1 15887994870393143573
14251757 5 18121806961938203542
14659021 117 18337658742321945960
14725015 67 18267582395244548887
15927050 60 17619344304536795357
16719943 64 17759810243162704042
17627616 140 17327179845109410111
19141452 34 18341899563124183081
19930381 70 17762056940560393011
20775530 9 18340773752952301978
21133410 52 17261862769288945222
21987440 362 15659638666268349109
23559900 14 18267574900215459185
23572383 38 18266721657674750594
3027735 51 18196364811120927575
3298306 158 17326615799991660109
4280585 95 18190444125472981688
445580 102 17688313807781267083
463206 1 18410858793054458265
469060 322 17483354837690664156
508706 21 18339923706226704798
5265222 85 17759548589644337180
5309563 4 17834963344563344643
550186 72 18335984281104589388
56633871 153 18340218491639466539
57527585 103 17678474171066363507
613672 6 18266443485622959419
9709674 26 18412261710089285048

> <PUBCHEM_SHAPE_MULTIPOLES>
494.56
8.96
5.83
1.19
6.63
0.96
0.05
-6.35
-0.36
-3.2
-1.07
-0.56
-0.26
1.25

> <PUBCHEM_SHAPE_SELFOVERLAP>
1071.589

> <PUBCHEM_SHAPE_VOLUME>
271.2

> <PUBCHEM_COORDINATE_TYPE>
2
5
10

$$$$
57446038
  -OEChem-05102415113D

 49 52  0     1  0  0  0  0  0999 V2000
   -1.8812   -4.5311   -0.4670 O   0  0  0  0  0  0  0  0  0  0  0  0
   -1.9077    2.2920   -0.0977 N   0  0  2  0  0  0  0  0  0  0  0  0
    1.8091    2.4480    0.2910 N   0  0  0  0  0  0  0  0  0  0  0  0
    4.3359   -2.4052    0.0179 N   0  0  0  0  0  0  0  0  0  0  0  0
    3.5049   -3.1642   -0.7156 N   0  0  0  0  0  0  0  0  0  0  0  0
    0.5304    2.6494   -0.3586 C   0  0  2  0  0  0  0  0  0  0  0  0
    0.3003    4.1437   -0.5872 C   0  0  0  0  0  0  0  0  0  0  0  0
   -0.5882    2.0488    0.5033 C   0  0  0  0  0  0  0  0  0  0  0  0
   -1.1026    4.3895   -1.1314 C   0  0  0  0  0  0  0  0  0  0  0  0
   -2.1644    3.7307   -0.2500 C   0  0  0  0  0  0  0  0  0  0  0  0
   -2.9590    1.6671    0.7049 C   0  0  0  0  0  0  0  0  0  0  0  0
   -3.0163    0.1777    0.4920 C   0  0  0  0  0  0  0  0  0  0  0  0
    2.5011    1.2507    0.2623 C   0  0  0  0  0  0  0  0  0  0  0  0
    1.9574    0.1585   -0.4255 C   0  0  0  0  0  0  0  0  0  0  0  0
    3.7294    1.1471    0.9178 C   0  0  0  0  0  0  0  0  0  0  0  0
   -3.5894   -0.3387   -0.6703 C   0  0  0  0  0  0  0  0  0  0  0  0
   -2.4959   -0.6856    1.4560 C   0  0  0  0  0  0  0  0  0  0  0  0
    2.6758   -1.0487   -0.4430 C   0  0  0  0  0  0  0  0  0  0  0  0
    3.8966   -1.1244    0.2180 C   0  0  0  0  0  0  0  0  0  0  0  0
    4.4564   -0.0478    0.9093 C   0  0  0  0  0  0  0  0  0  0  0  0
   -3.6422   -1.7183   -0.8684 C   0  0  0  0  0  0  0  0  0  0  0  0
   -2.5488   -2.0653    1.2580 C   0  0  0  0  0  0  0  0  0  0  0  0
   -3.1219   -2.5816    0.0960 C   0  0  0  0  0  0  0  0  0  0  0  0
    2.4960   -2.3356   -0.9941 C   0  0  0  0  0  0  0  0  0  0  0  0
   -3.1756   -4.0566   -0.1174 C   0  0  0  0  0  0  0  0  0  0  0  0
    0.5250    2.1916   -1.3566 H   0  0  0  0  0  0  0  0  0  0  0  0
    1.0476    4.5436   -1.2831 H   0  0  0  0  0  0  0  0  0  0  0  0
    0.4240    4.6953    0.3543 H   0  0  0  0  0  0  0  0  0  0  0  0
   -0.4192    0.9748    0.6167 H   0  0  0  0  0  0  0  0  0  0  0  0
   -0.5428    2.4746    1.5162 H   0  0  0  0  0  0  0  0  0  0  0  0
   -1.2907    5.4673   -1.1939 H   0  0  0  0  0  0  0  0  0  0  0  0
   -1.1739    3.9931   -2.1523 H   0  0  0  0  0  0  0  0  0  0  0  0
   -3.1405    3.8880   -0.7250 H   0  0  0  0  0  0  0  0  0  0  0  0
   -2.1932    4.2277    0.7286 H   0  0  0  0  0  0  0  0  0  0  0  0
   -3.9442    2.0604    0.4168 H   0  0  0  0  0  0  0  0  0  0  0  0
   -2.8550    1.9091    1.7715 H   0  0  0  0  0  0  0  0  0  0  0  0
    2.1869    3.1985    0.8591 H   0  0  0  0  0  0  0  0  0  0  0  0
    1.0143    0.1860   -0.9568 H   0  0  0  0  0  0  0  0  0  0  0  0
    4.1420    2.0027    1.4489 H   0  0  0  0  0  0  0  0  0  0  0  0
   -3.9973    0.3238   -1.4292 H   0  0  0  0  0  0  0  0  0  0  0  0
   -2.0461   -0.2968    2.3657 H   0  0  0  0  0  0  0  0  0  0  0  0
    5.4105   -0.1301    1.4178 H   0  0  0  0  0  0  0  0  0  0  0  0
   -4.0894   -2.1065   -1.7796 H   0  0  0  0  0  0  0  0  0  0  0  0
   -2.1391   -2.7285    2.0153 H   0  0  0  0  0  0  0  0  0  0  0  0
    1.6700   -2.7026   -1.5869 H   0  0  0  0  0  0  0  0  0  0  0  0
    5.1938   -2.8243    0.3546 H   0  0  0  0  0  0  0  0  0  0  0  0
   -3.5072   -4.5642    0.7952 H   0  0  0  0  0  0  0  0  0  0  0  0
   -3.8726   -4.3228   -0.9194 H   0  0  0  0  0  0  0  0  0  0  0  0
   -1.9533   -5.4934   -0.5872 H   0  0  0  0  0  0  0  0  0  0  0  0
  1 25  1  0  0  0  0
  1 49  1  0  0  0  0
  2  8  1  0  0  0  0
  2 10  1  0  0  0  0
  2 11  1  0  0  0  0
  3  6  1  0  0  0  0
  3 13  1  0  0  0  0
  3 37  1  0  0  0  0
  4  5  1  0  0  0  0
  4 19  1  0  0  0  0
  4 46  1  0  0  0  0
  5 24  2  0  0  0  0
  6  7  1  0  0  0  0
  6  8  1  0  0  0  0
  6 26  1  0  0  0  0
  7  9  1  0  0  0  0
  7 27  1  0  0  0  0
  7 28  1  0  0  0  0
  8 29  1  0  0  0  0
  8 30  1  0  0  0  0
  9 10  1  0  0  0  0
  9 31  1  0  0  0  0
  9 32  1  0  0  0  0
 10 33  1  0  0  0  0
 10 34  1  0  0  0  0
 11 12  1  0  0  0  0
 11 35  1  0  0  0  0
 11 36  1  0  0  0  0
 12 16  2  0  0  0  0
 12 17  1  0  0  0  0
 13 14  2  0  0  0  0
 13 15  1  0  0  0  0
 14 18  1  0  0  0  0
 14 38  1  0  0  0  0
 15 20  2  0  0  0  0
 15 39  1  0  0  0  0
 16 21  1  0  0  0  0
 16 40  1  0  0  0  0
 17 22  2  0  0  0  0
 17 41  1  0  0  0  0
 18 19  2  0  0  0  0
 18 24  1  0  0  0  0
 19 20  1  0  0  0  0
 20 42  1  0  0  0  0
 21 23  2  0  0  0  0
 21 43  1  0  0  0  0
 22 23  1  0  0  0  0
 22 44  1  0  0  0  0
 23 25  1  0  0  0  0
 24 45  1  0  0  0  0
 25 47  1  0  0  0  0
 25 48  1  0  0  0  0
M  END
> <PUBCHEM_COMPOUND_CID>
57446038

> <PUBCHEM_CONFORMER_RMSD>
0.8

> <PUBCHEM_CONFORMER_DIVERSEORDER>
1
130
189
86
200
48
162
208
145
206
186
25
217
114
79
66
43
26
125
155
176
134
191
171
196
70
56
220
202
170
40
133
106
156
104
63
152
54
164
51
169
8
60
150
192
41
219
5
215
141
101
23
127
204
90
209
187
166
69
128
120
89
29
36
68
167
149
58
14
175
33
132
85
91
99
211
20
198
139
38
182
87
173
44
135
137
142
53
57
131
160
74
16
113
18
34
207
185
117
144
197
180
107
95
146
78
165
21
30
190
109
73
119
37
105
195
93
138
3
159
55
75
28
65
214
102
126
181
179
203
157
121
212
174
11
50
148
12
158
213
151
161
72
47
108
199
6
49
32
100
188
76
83
147
9
168
52
221
194
2
94
17
42
118
143
27
129
80
77
59
62
153
45
13
24
116
154
92
19
205
61
210
183
112
64
88
163
96
115
82
193
136
111
184
218
4
7
39
124
177
67
22
222
46
123
110
84
10
216
97
35
81
103
201
31
98
122
178
15
71
172
140

> <PUBCHEM_MMFF94_PARTIAL_CHARGES>
33
1 -0.68
10 0.27
11 0.41
12 -0.14
13 0.1
14 -0.15
15 -0.15
16 -0.15
17 -0.15
19 -0.15
2 -0.81
20 -0.15
21 -0.15
22 -0.15
23 -0.14
24 0.14
25 0.42
3 -0.87
37 0.4
38 0.15
39 0.15
4 0.3
40 0.15
41 0.15
42 0.15
43 0.15
44 0.15
45 0.15
46 0.27
49 0.4
5 -0.71
6 0.37
8 0.27

> <PUBCHEM_EFFECTIVE_ROTOR_COUNT>
6.2

> <PUBCHEM_PHARMACOPHORE_FEATURES>
11
1 1 acceptor
1 1 donor
1 2 cation
1 3 cation
1 3 donor
1 4 donor
1 5 acceptor
5 4 5 18 19 24 rings
6 12 16 17 21 22 23 rings
6 13 14 15 18 19 20 rings
6 2 6 7 8 9 10 rings

> <PUBCHEM_HEAVY_ATOM_COUNT>
25

> <PUBCHEM_ATOM_DEF_STEREO_COUNT>
0

> <PUBCHEM_ATOM_UDEF_STEREO_COUNT>
1

> <PUBCHEM_BOND_DEF_STEREO_COUNT>
0

> <PUBCHEM_BOND_UDEF_STEREO_COUNT>
0

> <PUBCHEM_ISOTOPIC_ATOM_COUNT>
0

> <PUBCHEM_COMPONENT_COUNT>
1

> <PUBCHEM_CACTVS_TAUTO_COUNT>
2

> <PUBCHEM_CONFORMER_ID>
036C8E9600000001

> <PUBCHEM_MMFF94_ENERGY>
59.9292

> <PUBCHEM_FEATURE_SELFOVERLAP>
55.913

> <PUBCHEM_SHAPE_FINGERPRINT>
10764073 3 17825420482220781561
107951 10 16811257159538773569
10940486 97 18045233639622637724
1100329 8 14592932832085965948
11014199 57 18338803432452693751
11552529 35 18060417997553588008
12038231 1 18411703166424507023
12422481 6 18124907602330394657
12553582 1 18264506120386113345
13122387 1 16681764260293552303
13402501 40 17980767034453697468
1361 2 16536793201817087523
138480 1 15600043753041424037
14117953 113 18341898553822517647
14251757 5 18050311188203471054
14659021 117 18337095770920250418
14725015 67 18195243317761333951
15110567 62 16826438623626903027
15927050 60 17258774824942290781
16719943 64 17543916706826840906
19141452 34 18341052917685520009
19930381 70 17905888437524835819
20775530 9 18341054102663301387
21133410 52 17404567262466181590
21344244 181 18121758566458014349
22113638 7 17837203049617099734
23559900 14 18122615330617670793
3027735 51 17979909420211749565
3298306 158 17111285217983294005
463206 1 17476358774121073235
469060 322 17554284315576426732
5265222 85 17615714850791128004
5309563 4 18050852422691369515
550186 72 18335701676620025700
56633871 153 18340217357810071051
613672 6 18266161993545539811
9709674 26 18339638919882930408

> <PUBCHEM_SHAPE_MULTIPOLES>
488.69
8.48
6.53
1.08
3.84
1.69
0.12
-7.43
0.88
-2.99
-2.1
-0.23
-0.06
0.58

> <PUBCHEM_SHAPE_SELFOVERLAP>
1058.58

> <PUBCHEM_SHAPE_VOLUME>
268.7

> <PUBCHEM_COORDINATE_TYPE>
2
5
10

$$$$
25008495
  -OEChem-05102415113D

 53 57  0     1  0  0  0  0  0999 V2000
    4.9110    0.4036   -0.5780 S   0  0  0  0  0  0  0  0  0  0  0  0
   -1.2534    2.9948    0.1722 N   0  0  2  0  0  0  0  0  0  0  0  0
   -3.4382   -0.0321   -0.0615 N   0  0  0  0  0  0  0  0  0  0  0  0
   -0.7311   -4.7877   -0.3270 N   0  0  0  0  0  0  0  0  0  0  0  0
    0.4433   -4.5278    0.2715 N   0  0  0  0  0  0  0  0  0  0  0  0
   -2.8329    1.1259    0.5631 C   0  0  1  0  0  0  0  0  0  0  0  0
    4.3928   -1.1035    0.2904 C   0  0  0  0  0  0  0  0  0  0  0  0
   -1.8398    1.7779   -0.4082 C   0  0  0  0  0  0  0  0  0  0  0  0
   -3.9231    2.1158    0.9750 C   0  0  0  0  0  0  0  0  0  0  0  0
    5.3927   -1.9321    1.0421 C   0  0  0  0  0  0  0  0  0  0  0  0
    4.3568   -1.1452    1.7901 C   0  0  0  0  0  0  0  0  0  0  0  0
   -3.3010    3.4065    1.4966 C   0  0  0  0  0  0  0  0  0  0  0  0
   -2.2927    3.9802    0.5004 C   0  0  0  0  0  0  0  0  0  0  0  0
   -0.2688    3.5747   -0.7411 C   0  0  0  0  0  0  0  0  0  0  0  0
    1.0133    2.7905   -0.7013 C   0  0  0  0  0  0  0  0  0  0  0  0
    3.3916    1.3345   -0.6265 C   0  0  0  0  0  0  0  0  0  0  0  0
   -2.8116   -1.2611   -0.1634 C   0  0  0  0  0  0  0  0  0  0  0  0
    1.8888    2.9393    0.3745 C   0  0  0  0  0  0  0  0  0  0  0  0
    1.3270    1.9135   -1.7397 C   0  0  0  0  0  0  0  0  0  0  0  0
    3.0779    2.2113    0.4119 C   0  0  0  0  0  0  0  0  0  0  0  0
    2.5162    1.1853   -1.7023 C   0  0  0  0  0  0  0  0  0  0  0  0
   -1.5212   -1.4209    0.3572 C   0  0  0  0  0  0  0  0  0  0  0  0
   -3.4734   -2.3237   -0.7814 C   0  0  0  0  0  0  0  0  0  0  0  0
   -0.9031   -2.6775    0.2446 C   0  0  0  0  0  0  0  0  0  0  0  0
   -1.5847   -3.7186   -0.3757 C   0  0  0  0  0  0  0  0  0  0  0  0
   -2.8712   -3.5805   -0.9012 C   0  0  0  0  0  0  0  0  0  0  0  0
    0.3349   -3.2431    0.6177 C   0  0  0  0  0  0  0  0  0  0  0  0
   -2.3211    0.8431    1.4925 H   0  0  0  0  0  0  0  0  0  0  0  0
    3.6151   -1.6412   -0.2413 H   0  0  0  0  0  0  0  0  0  0  0  0
   -1.0542    1.0591   -0.6536 H   0  0  0  0  0  0  0  0  0  0  0  0
   -2.3485    2.0106   -1.3551 H   0  0  0  0  0  0  0  0  0  0  0  0
   -4.5692    2.3473    0.1179 H   0  0  0  0  0  0  0  0  0  0  0  0
   -4.5700    1.6746    1.7428 H   0  0  0  0  0  0  0  0  0  0  0  0
    6.4198   -1.5935    1.1025 H   0  0  0  0  0  0  0  0  0  0  0  0
    5.2804   -3.0092    1.0102 H   0  0  0  0  0  0  0  0  0  0  0  0
    4.6923   -0.2814    2.3511 H   0  0  0  0  0  0  0  0  0  0  0  0
    3.5482   -1.6930    2.2588 H   0  0  0  0  0  0  0  0  0  0  0  0
   -2.8021    3.2114    2.4544 H   0  0  0  0  0  0  0  0  0  0  0  0
   -4.0885    4.1433    1.6915 H   0  0  0  0  0  0  0  0  0  0  0  0
   -1.8360    4.8669    0.9568 H   0  0  0  0  0  0  0  0  0  0  0  0
   -2.8160    4.3120   -0.4061 H   0  0  0  0  0  0  0  0  0  0  0  0
   -0.6563    3.6561   -1.7657 H   0  0  0  0  0  0  0  0  0  0  0  0
   -0.0212    4.6025   -0.4408 H   0  0  0  0  0  0  0  0  0  0  0  0
   -4.3388    0.0779   -0.5148 H   0  0  0  0  0  0  0  0  0  0  0  0
    1.6554    3.6192    1.1897 H   0  0  0  0  0  0  0  0  0  0  0  0
    0.6542    1.7878   -2.5838 H   0  0  0  0  0  0  0  0  0  0  0  0
    3.7474    2.3400    1.2588 H   0  0  0  0  0  0  0  0  0  0  0  0
    2.7433    0.5059   -2.5201 H   0  0  0  0  0  0  0  0  0  0  0  0
   -0.9665   -0.6341    0.8530 H   0  0  0  0  0  0  0  0  0  0  0  0
   -4.4760   -2.1876   -1.1819 H   0  0  0  0  0  0  0  0  0  0  0  0
   -3.3835   -4.4070   -1.3809 H   0  0  0  0  0  0  0  0  0  0  0  0
    1.1628   -2.7702    1.1270 H   0  0  0  0  0  0  0  0  0  0  0  0
   -0.8894   -5.7218   -0.6835 H   0  0  0  0  0  0  0  0  0  0  0  0
  1  7  1  0  0  0  0
  1 16  1  0  0  0  0
  2  8  1  0  0  0  0
  2 13  1  0  0  0  0
  2 14  1  0  0  0  0
  3  6  1  0  0  0  0
  3 17  1  0  0  0  0
  3 44  1  0  0  0  0
  4  5  1  0  0  0  0
  4 25  1  0  0  0  0
  4 53  1  0  0  0  0
  5 27  2  0  0  0  0
  6  8  1  0  0  0  0
  6  9  1  0  0  0  0
  6 28  1  0  0  0  0
  7 10  1  0  0  0  0
  7 11  1  0  0  0  0
  7 29  1  0  0  0  0
  8 30  1  0  0  0  0
  8 31  1  0  0  0  0
  9 12  1  0  0  0  0
  9 32  1  0  0  0  0
  9 33  1  0  0  0  0
 10 11  1  0  0  0  0
 10 34  1  0  0  0  0
 10 35  1  0  0  0  0
 11 36  1  0  0  0  0
 11 37  1  0  0  0  0
 12 13  1  0  0  0  0
 12 38  1  0  0  0  0
 12 39  1  0  0  0  0
 13 40  1  0  0  0  0
 13 41  1  0  0  0  0
 14 15  1  0  0  0  0
 14 42  1  0  0  0  0
 14 43  1  0  0  0  0
 15 18  2  0  0  0  0
 15 19  1  0  0  0  0
 16 20  2  0  0  0  0
 16 21  1  0  0  0  0
 17 22  2  0  0  0  0
 17 23  1  0  0  0  0
 18 20  1  0  0  0  0
 18 45  1  0  0  0  0
 19 21  2  0  0  0  0
 19 46  1  0  0  0  0
 20 47  1  0  0  0  0
 21 48  1  0  0  0  0
 22 24  1  0  0  0  0
 22 49  1  0  0  0  0
 23 26  2  0  0  0  0
 23 50  1  0  0  0  0
 24 25  2  0  0  0  0
 24 27  1  0  0  0  0
 25 26  1  0  0  0  0
 26 51  1  0  0  0  0
 27 52  1  0  0  0  0
M  END
> <PUBCHEM_COMPOUND_CID>
25008495

> <PUBCHEM_CONFORMER_RMSD>
1

> <PUBCHEM_CONFORMER_DIVERSEORDER>
1
126
45
136
77
74
95
30
111
154
161
91
28
19
40
98
155
61
102
176
169
185
165
72
132
166
156
179
42
48
159
152
139
106
53
82
41
143
78
70
62
135
24
190
149
13
56
85
66
116
175
124
25
121
71
120
127
134
68
59
84
173
168
29
108
88
9
96
43
109
51
87
118
189
144
80
20
119
64
170
163
110
146
99
162
174
47
89
92
180
39
171
141
93
97
142
26
123
79
17
117
16
55
131
177
112
101
103
130
148
49
69
140
150
145
37
52
7
38
151
33
172
5
105
8
100
138
15
107
114
21
63
178
129
18
182
44
90
73
76
67
27
6
65
113
2
137
83
133
3
157
187
147
81
94
125
186
57
184
14
128
183
12
11
158
34
22
167
164
32
50
181
4
160
23
188
115
36
31
46
75
104
86
60
153
122
58
35
10
54

> <PUBCHEM_MMFF94_PARTIAL_CHARGES>
39
1 -0.24
10 -0.2
11 -0.2
13 0.27
14 0.41
15 -0.14
16 0.1
17 0.1
18 -0.15
19 -0.15
2 -0.81
20 -0.15
21 -0.15
22 -0.15
23 -0.15
25 -0.15
26 -0.15
27 0.14
29 0.1
3 -0.87
34 0.1
35 0.1
36 0.1
37 0.1
4 0.3
44 0.4
45 0.15
46 0.15
47 0.15
48 0.15
49 0.15
5 -0.71
50 0.15
51 0.15
52 0.15
53 0.27
6 0.37
7 0.04
8 0.27

> <PUBCHEM_EFFECTIVE_ROTOR_COUNT>
7.8

> <PUBCHEM_PHARMACOPHORE_FEATURES>
9
1 2 cation
1 3 cation
1 3 donor
1 4 donor
1 5 acceptor
5 4 5 24 25 27 rings
6 15 16 18 19 20 21 rings
6 17 22 23 24 25 26 rings
6 2 6 8 9 12 13 rings

> <PUBCHEM_HEAVY_ATOM_COUNT>
27

> <PUBCHEM_ATOM_DEF_STEREO_COUNT>
0

> <PUBCHEM_ATOM_UDEF_STEREO_COUNT>
1

> <PUBCHEM_BOND_DEF_STEREO_COUNT>
0

> <PUBCHEM_BOND_UDEF_STEREO_COUNT>
0

> <PUBCHEM_ISOTOPIC_ATOM_COUNT>
0

> <PUBCHEM_COMPONENT_COUNT>
1

> <PUBCHEM_CACTVS_TAUTO_COUNT>
2

> <PUBCHEM_CONFORMER_ID>
017D996F00000001

> <PUBCHEM_MMFF94_ENERGY>
67.8722

> <PUBCHEM_FEATURE_SELFOVERLAP>
45.763

> <PUBCHEM_SHAPE_FINGERPRINT>
11513181 2 18271248223168175326
12100795 323 17615954518234425458
12553582 1 17547315735528592421
12633257 1 18341615858996102968
12788726 201 18195825165100768391
12978246 48 18336828572230085426
13122387 1 18120091676321909302
14100547 121 18339077090646844016
14363568 33 17331708763694843851
14659021 117 18267584791920689552
14866123 147 18339080380845000430
15297060 5 17984980402151500722
15403338 16 16518491332123390857
16120349 306 18265327309759270664
16728300 4 17968662597301800401
17818456 19 18410291445334425270
20764821 26 17976533919456955286
20775530 9 18124035886328386212
21344244 246 17904186041860376061
229767 44 18265045834993848546
23516275 137 17615443288799013602
23559900 14 16682312453519897589
238918 7 17981874256239463734
3729539 64 17976527631841358791
463206 1 17903357353051541178
5265222 85 18119836645971011388
5309563 4 16756639426118648575
6287921 2 17476073527766736489
6433294 58 16754377739305909727
653340 110 18340475751690464248
9543594 6 17978513027512605894
9982175 49 17822587087821729852

> <PUBCHEM_SHAPE_MULTIPOLES>
539.57
8.89
7.35
1.32
9.2
3.84
0.02
0.97
-2.06
-5.19
-0.26
0.68
-0.42
-3.12

> <PUBCHEM_SHAPE_SELFOVERLAP>
1151.413

> <PUBCHEM_SHAPE_VOLUME>
301.1

> <PUBCHEM_COORDINATE_TYPE>
2
5
10

$$$$
25009018
  -OEChem-05102415113D

 65 68  0     1  0  0  0  0  0999 V2000
    4.4111   -0.2556   -0.6392 O   0  0  0  0  0  0  0  0  0  0  0  0
    4.6010   -1.8407    1.0119 O   0  0  0  0  0  0  0  0  0  0  0  0
   -3.8108   -1.7839   -0.0699 N   0  0  2  0  0  0  0  0  0  0  0  0
   -3.8016    1.9316    0.3603 N   0  0  0  0  0  0  0  0  0  0  0  0
    1.1363    4.2671   -0.0596 N   0  0  0  0  0  0  0  0  0  0  0  0
    3.0718   -2.0327   -0.7186 N   0  0  0  0  0  0  0  0  0  0  0  0
    1.8358    3.4143   -0.8266 N   0  0  0  0  0  0  0  0  0  0  0  0
   -4.0772    0.6695   -0.2943 C   0  0  2  0  0  0  0  0  0  0  0  0
   -5.5867    0.5026   -0.4729 C   0  0  0  0  0  0  0  0  0  0  0  0
   -3.4935   -0.4820    0.5351 C   0  0  0  0  0  0  0  0  0  0  0  0
   -5.9080   -0.8831   -1.0221 C   0  0  0  0  0  0  0  0  0  0  0  0
   -5.2632   -1.9804   -0.1745 C   0  0  0  0  0  0  0  0  0  0  0  0
   -3.2020   -2.8685    0.7000 C   0  0  0  0  0  0  0  0  0  0  0  0
   -1.7244   -2.9837    0.4350 C   0  0  0  0  0  0  0  0  0  0  0  0
   -2.5789    2.5752    0.2964 C   0  0  0  0  0  0  0  0  0  0  0  0
   -0.8085   -2.5094    1.3740 C   0  0  0  0  0  0  0  0  0  0  0  0
   -1.2713   -3.5645   -0.7496 C   0  0  0  0  0  0  0  0  0  0  0  0
   -1.5336    1.9959   -0.4340 C   0  0  0  0  0  0  0  0  0  0  0  0
   -2.4042    3.7917    0.9586 C   0  0  0  0  0  0  0  0  0  0  0  0
   -0.3002    2.6663   -0.4873 C   0  0  0  0  0  0  0  0  0  0  0  0
    0.5604   -2.6158    1.1286 C   0  0  0  0  0  0  0  0  0  0  0  0
    0.0976   -3.6710   -0.9951 C   0  0  0  0  0  0  0  0  0  0  0  0
    1.0135   -3.1966   -0.0559 C   0  0  0  0  0  0  0  0  0  0  0  0
   -1.1823    4.4712    0.9149 C   0  0  0  0  0  0  0  0  0  0  0  0
   -0.1533    3.8765    0.1814 C   0  0  0  0  0  0  0  0  0  0  0  0
    2.4771   -3.3093   -0.3185 C   0  0  0  0  0  0  0  0  0  0  0  0
    0.9587    2.4417   -1.0847 C   0  0  0  0  0  0  0  0  0  0  0  0
    5.4547    0.5053   -0.0205 C   0  0  0  0  0  0  0  0  0  0  0  0
    5.0073    0.8881    1.3895 C   0  0  0  0  0  0  0  0  0  0  0  0
    6.7200   -0.3503    0.0229 C   0  0  0  0  0  0  0  0  0  0  0  0
    5.6793    1.7541   -0.8703 C   0  0  0  0  0  0  0  0  0  0  0  0
    4.0749   -1.4236   -0.0147 C   0  0  0  0  0  0  0  0  0  0  0  0
   -3.6545    0.6568   -1.3076 H   0  0  0  0  0  0  0  0  0  0  0  0
   -6.1000    0.6378    0.4883 H   0  0  0  0  0  0  0  0  0  0  0  0
   -5.9796    1.2732   -1.1471 H   0  0  0  0  0  0  0  0  0  0  0  0
   -2.4102   -0.3579    0.6127 H   0  0  0  0  0  0  0  0  0  0  0  0
   -3.8820   -0.4308    1.5626 H   0  0  0  0  0  0  0  0  0  0  0  0
   -6.9942   -1.0267   -1.0489 H   0  0  0  0  0  0  0  0  0  0  0  0
   -5.5502   -0.9589   -2.0568 H   0  0  0  0  0  0  0  0  0  0  0  0
   -5.7271   -2.0001    0.8205 H   0  0  0  0  0  0  0  0  0  0  0  0
   -5.4764   -2.9440   -0.6533 H   0  0  0  0  0  0  0  0  0  0  0  0
   -3.6449   -3.8336    0.4160 H   0  0  0  0  0  0  0  0  0  0  0  0
   -3.4028   -2.7670    1.7754 H   0  0  0  0  0  0  0  0  0  0  0  0
   -4.5158    2.3326    0.9584 H   0  0  0  0  0  0  0  0  0  0  0  0
   -1.1477   -2.0543    2.3008 H   0  0  0  0  0  0  0  0  0  0  0  0
   -1.9752   -3.9370   -1.4892 H   0  0  0  0  0  0  0  0  0  0  0  0
   -1.6172    1.0602   -0.9723 H   0  0  0  0  0  0  0  0  0  0  0  0
   -3.2239    4.2323    1.5227 H   0  0  0  0  0  0  0  0  0  0  0  0
    1.2646   -2.2422    1.8673 H   0  0  0  0  0  0  0  0  0  0  0  0
    0.4359   -4.1238   -1.9232 H   0  0  0  0  0  0  0  0  0  0  0  0
   -1.0446    5.4161    1.4285 H   0  0  0  0  0  0  0  0  0  0  0  0
    2.9893   -3.7038    0.5666 H   0  0  0  0  0  0  0  0  0  0  0  0
    2.6765   -4.0121   -1.1356 H   0  0  0  0  0  0  0  0  0  0  0  0
    1.2727    1.6076   -1.6964 H   0  0  0  0  0  0  0  0  0  0  0  0
    1.6005    5.1043    0.2699 H   0  0  0  0  0  0  0  0  0  0  0  0
    2.7322   -1.5861   -1.5651 H   0  0  0  0  0  0  0  0  0  0  0  0
    3.9754    1.2585    1.3853 H   0  0  0  0  0  0  0  0  0  0  0  0
    5.0537    0.0755    2.1186 H   0  0  0  0  0  0  0  0  0  0  0  0
    5.6472    1.6830    1.7912 H   0  0  0  0  0  0  0  0  0  0  0  0
    6.7258   -1.1153    0.8033 H   0  0  0  0  0  0  0  0  0  0  0  0
    6.8813   -0.8618   -0.9332 H   0  0  0  0  0  0  0  0  0  0  0  0
    7.5981    0.2764    0.2198 H   0  0  0  0  0  0  0  0  0  0  0  0
    6.4685    2.3916   -0.4586 H   0  0  0  0  0  0  0  0  0  0  0  0
    5.9536    1.4816   -1.8959 H   0  0  0  0  0  0  0  0  0  0  0  0
    4.7596    2.3452   -0.9430 H   0  0  0  0  0  0  0  0  0  0  0  0
  1 28  1  0  0  0  0
  1 32  1  0  0  0  0
  2 32  2  0  0  0  0
  3 10  1  0  0  0  0
  3 12  1  0  0  0  0
  3 13  1  0  0  0  0
  4  8  1  0  0  0  0
  4 15  1  0  0  0  0
  4 44  1  0  0  0  0
  5  7  1  0  0  0  0
  5 25  1  0  0  0  0
  5 55  1  0  0  0  0
  6 26  1  0  0  0  0
  6 32  1  0  0  0  0
  6 56  1  0  0  0  0
  7 27  2  0  0  0  0
  8  9  1  0  0  0  0
  8 10  1  0  0  0  0
  8 33  1  0  0  0  0
  9 11  1  0  0  0  0
  9 34  1  0  0  0  0
  9 35  1  0  0  0  0
 10 36  1  0  0  0  0
 10 37  1  0  0  0  0
 11 12  1  0  0  0  0
 11 38  1  0  0  0  0
 11 39  1  0  0  0  0
 12 40  1  0  0  0  0
 12 41  1  0  0  0  0
 13 14  1  0  0  0  0
 13 42  1  0  0  0  0
 13 43  1  0  0  0  0
 14 16  2  0  0  0  0
 14 17  1  0  0  0  0
 15 18  2  0  0  0  0
 15 19  1  0  0  0  0
 16 21  1  0  0  0  0
 16 45  1  0  0  0  0
 17 22  2  0  0  0  0
 17 46  1  0  0  0  0
 18 20  1  0  0  0  0
 18 47  1  0  0  0  0
 19 24  2  0  0  0  0
 19 48  1  0  0  0  0
 20 25  2  0  0  0  0
 20 27  1  0  0  0  0
 21 23  2  0  0  0  0
 21 49  1  0  0  0  0
 22 23  1  0  0  0  0
 22 50  1  0  0  0  0
 23 26  1  0  0  0  0
 24 25  1  0  0  0  0
 24 51  1  0  0  0  0
 26 52  1  0  0  0  0
 26 53  1  0  0  0  0
 27 54  1  0  0  0  0
 28 29  1  0  0  0  0
 28 30  1  0  0  0  0
 28 31  1  0  0  0  0
 29 57  1  0  0  0  0
 29 58  1  0  0  0  0
 29 59  1  0  0  0  0
 30 60  1  0  0  0  0
 30 61  1  0  0  0  0
 30 62  1  0  0  0  0
 31 63  1  0  0  0  0
 31 64  1  0  0  0  0
 31 65  1  0  0  0  0
M  END
> <PUBCHEM_COMPOUND_CID>
25009018

> <PUBCHEM_CONFORMER_RMSD>
1.4

> <PUBCHEM_CONFORMER_DIVERSEORDER>
1
28
58
41
71
15
21
6
43
36
70
68
59
27
61
57
74
73
84
76
33
48
3
67
77
46
72
64
35
8
65
52
81
69
19
12
30
82
10
14
16
13
62
39
42
51
60
7
29
56
4
55
20
31
11
45
23
66
24
75
44
54
49
53
37
9
79
40
50
2
34
80
5
32
25
26
18
17
38
83
47
22
63
78

> <PUBCHEM_MMFF94_PARTIAL_CHARGES>
37
1 -0.43
10 0.27
12 0.27
13 0.41
14 -0.14
15 0.1
16 -0.15
17 -0.15
18 -0.15
19 -0.15
2 -0.57
21 -0.15
22 -0.15
23 -0.14
24 -0.15
25 -0.15
26 0.44
27 0.14
28 0.28
3 -0.81
32 0.78
4 -0.87
44 0.4
45 0.15
46 0.15
47 0.15
48 0.15
49 0.15
5 0.3
50 0.15
51 0.15
54 0.15
55 0.27
56 0.37
6 -0.73
7 -0.71
8 0.37

> <PUBCHEM_EFFECTIVE_ROTOR_COUNT>
10.2

> <PUBCHEM_PHARMACOPHORE_FEATURES>
12
1 2 acceptor
1 3 cation
1 4 cation
1 4 donor
1 5 donor
1 6 donor
1 7 acceptor
4 28 29 30 31 hydrophobe
5 5 7 20 25 27 rings
6 14 16 17 21 22 23 rings
6 15 18 19 20 24 25 rings
6 3 8 9 10 11 12 rings

> <PUBCHEM_HEAVY_ATOM_COUNT>
32

> <PUBCHEM_ATOM_DEF_STEREO_COUNT>
0

> <PUBCHEM_ATOM_UDEF_STEREO_COUNT>
1

> <PUBCHEM_BOND_DEF_STEREO_COUNT>
0

> <PUBCHEM_BOND_UDEF_STEREO_COUNT>
0

> <PUBCHEM_ISOTOPIC_ATOM_COUNT>
0

> <PUBCHEM_COMPONENT_COUNT>
1

> <PUBCHEM_CACTVS_TAUTO_COUNT>
4

> <PUBCHEM_CONFORMER_ID>
017D9B7A00000001

> <PUBCHEM_MMFF94_ENERGY>
78.0558

> <PUBCHEM_FEATURE_SELFOVERLAP>
60.987

> <PUBCHEM_SHAPE_FINGERPRINT>
10006869 2 18264475218191877382
10049733 16 18191613963601975988
1100329 8 18338233898435350429
11513181 2 18128542556894901494
12788726 201 18408606985215327898
13402501 40 18411134753594035882
13561361 72 18337383847593900386
14251764 38 18194684761411757042
14394314 77 18340493262299081745
144659 178 18410299146263956860
15001296 14 18116990198912489688
15264996 151 18113616815496567521
15274700 208 16843309354693775072
15320467 1 18411139151598212558
15351339 4 18118396491110337144
15419008 145 18192416499764055706
15721738 15 14872419921928156204
15961568 22 18411418384386236750
15968369 153 18201143408998858586
15975801 100 17029393665678549694
19611394 137 18115881865681020459
20764821 26 18194127532085235524
21133410 38 17985555459775958425
21344244 246 17763452212938607423
21792938 131 18268707402531196235
21795232 40 18187915162803455933
325973 47 18194686092634951104
373842 8 18408604764543435086
392239 28 18265336097151490346
463206 1 18338240495489558921
50150288 127 16054644785477006608
5265222 85 16891467013937589933
6004065 56 18269263716364584519
6036956 94 18334022665901654405
6287921 2 17761501283397526164
653340 110 18268147570001039816
6608658 132 18341606027547048087
9543594 6 18268427026517435176

> <PUBCHEM_SHAPE_MULTIPOLES>
621.9
12.95
7.09
1.11
9.87
3.44
0.13
-1.77
-1.14
-1.64
0.42
0.21
-0.09
-0.71

> <PUBCHEM_SHAPE_SELFOVERLAP>
1327.587

> <PUBCHEM_SHAPE_VOLUME>
345.5

> <PUBCHEM_COORDINATE_TYPE>
2
5
10

$$$$
25009016
  -OEChem-05102415113D

 54 57  0     1  0  0  0  0  0999 V2000
   -4.3296   -1.0495   -0.5975 S   0  0  0  0  0  0  0  0  0  0  0  0
   -4.2568   -0.4146   -1.9030 O   0  0  0  0  0  0  0  0  0  0  0  0
   -3.2537   -1.9099   -0.1340 O   0  0  0  0  0  0  0  0  0  0  0  0
    1.1592    3.0751   -0.1388 N   0  0  2  0  0  0  0  0  0  0  0  0
    3.5942    0.2440    0.0762 N   0  0  0  0  0  0  0  0  0  0  0  0
    1.3042   -4.7301    0.2449 N   0  0  0  0  0  0  0  0  0  0  0  0
    0.1178   -4.5632   -0.3628 N   0  0  0  0  0  0  0  0  0  0  0  0
    2.8975    1.3549   -0.5387 C   0  0  1  0  0  0  0  0  0  0  0  0
    1.8426    1.9045    0.4307 C   0  0  0  0  0  0  0  0  0  0  0  0
    3.9023    2.4409   -0.9246 C   0  0  0  0  0  0  0  0  0  0  0  0
    3.1766    3.6810   -1.4348 C   0  0  0  0  0  0  0  0  0  0  0  0
    2.1129    4.1509   -0.4417 C   0  0  0  0  0  0  0  0  0  0  0  0
    0.1195    3.5544    0.7717 C   0  0  0  0  0  0  0  0  0  0  0  0
   -1.1075    2.6828    0.7306 C   0  0  0  0  0  0  0  0  0  0  0  0
    3.0748   -1.0357    0.1539 C   0  0  0  0  0  0  0  0  0  0  0  0
   -1.9954    2.7786   -0.3408 C   0  0  0  0  0  0  0  0  0  0  0  0
   -1.3565    1.7800    1.7644 C   0  0  0  0  0  0  0  0  0  0  0  0
    1.8081   -1.2980   -0.3831 C   0  0  0  0  0  0  0  0  0  0  0  0
    3.8195   -2.0466    0.7641 C   0  0  0  0  0  0  0  0  0  0  0  0
   -3.3813    1.0684    0.6551 C   0  0  0  0  0  0  0  0  0  0  0  0
   -3.1322    1.9713   -0.3786 C   0  0  0  0  0  0  0  0  0  0  0  0
   -2.4934    0.9728    1.7265 C   0  0  0  0  0  0  0  0  0  0  0  0
    1.2995   -2.6046   -0.2950 C   0  0  0  0  0  0  0  0  0  0  0  0
    2.0621   -3.5925    0.3181 C   0  0  0  0  0  0  0  0  0  0  0  0
   -4.5963    0.2044    0.6138 C   0  0  0  0  0  0  0  0  0  0  0  0
    3.3268   -3.3521    0.8596 C   0  0  0  0  0  0  0  0  0  0  0  0
    0.1184   -3.2690   -0.6897 C   0  0  0  0  0  0  0  0  0  0  0  0
   -5.8333   -1.9981   -0.5466 C   0  0  0  0  0  0  0  0  0  0  0  0
    2.4211    1.0431   -1.4776 H   0  0  0  0  0  0  0  0  0  0  0  0
    1.1167    1.1193    0.6574 H   0  0  0  0  0  0  0  0  0  0  0  0
    2.3198    2.1655    1.3865 H   0  0  0  0  0  0  0  0  0  0  0  0
    4.5178    2.7142   -0.0572 H   0  0  0  0  0  0  0  0  0  0  0  0
    4.5923    2.0685   -1.6913 H   0  0  0  0  0  0  0  0  0  0  0  0
    3.8996    4.4856   -1.6105 H   0  0  0  0  0  0  0  0  0  0  0  0
    2.7056    3.4581   -2.4006 H   0  0  0  0  0  0  0  0  0  0  0  0
    1.5863    5.0018   -0.8907 H   0  0  0  0  0  0  0  0  0  0  0  0
    2.5969    4.5129    0.4751 H   0  0  0  0  0  0  0  0  0  0  0  0
    0.4947    3.6589    1.7990 H   0  0  0  0  0  0  0  0  0  0  0  0
   -0.2063    4.5635    0.4819 H   0  0  0  0  0  0  0  0  0  0  0  0
    4.4776    0.4243    0.5409 H   0  0  0  0  0  0  0  0  0  0  0  0
   -1.8146    3.4814   -1.1499 H   0  0  0  0  0  0  0  0  0  0  0  0
   -0.6727    1.6946    2.6047 H   0  0  0  0  0  0  0  0  0  0  0  0
    1.1926   -0.5545   -0.8737 H   0  0  0  0  0  0  0  0  0  0  0  0
    4.8029   -1.8309    1.1774 H   0  0  0  0  0  0  0  0  0  0  0  0
   -3.8223    2.0761   -1.2110 H   0  0  0  0  0  0  0  0  0  0  0  0
   -2.6736    0.2721    2.5374 H   0  0  0  0  0  0  0  0  0  0  0  0
   -4.7876   -0.2839    1.5743 H   0  0  0  0  0  0  0  0  0  0  0  0
   -5.4814    0.7835    0.3330 H   0  0  0  0  0  0  0  0  0  0  0  0
    3.9036   -4.1387    1.3331 H   0  0  0  0  0  0  0  0  0  0  0  0
   -0.7396   -2.8624   -1.2057 H   0  0  0  0  0  0  0  0  0  0  0  0
    1.5388   -5.6525    0.5900 H   0  0  0  0  0  0  0  0  0  0  0  0
   -6.6697   -1.3452   -0.8022 H   0  0  0  0  0  0  0  0  0  0  0  0
   -5.9551   -2.4108    0.4564 H   0  0  0  0  0  0  0  0  0  0  0  0
   -5.7509   -2.8057   -1.2769 H   0  0  0  0  0  0  0  0  0  0  0  0
  1  2  2  0  0  0  0
  1  3  2  0  0  0  0
  1 25  1  0  0  0  0
  1 28  1  0  0  0  0
  4  9  1  0  0  0  0
  4 12  1  0  0  0  0
  4 13  1  0  0  0  0
  5  8  1  0  0  0  0
  5 15  1  0  0  0  0
  5 40  1  0  0  0  0
  6  7  1  0  0  0  0
  6 24  1  0  0  0  0
  6 51  1  0  0  0  0
  7 27  2  0  0  0  0
  8  9  1  0  0  0  0
  8 10  1  0  0  0  0
  8 29  1  0  0  0  0
  9 30  1  0  0  0  0
  9 31  1  0  0  0  0
 10 11  1  0  0  0  0
 10 32  1  0  0  0  0
 10 33  1  0  0  0  0
 11 12  1  0  0  0  0
 11 34  1  0  0  0  0
 11 35  1  0  0  0  0
 12 36  1  0  0  0  0
 12 37  1  0  0  0  0
 13 14  1  0  0  0  0
 13 38  1  0  0  0  0
 13 39  1  0  0  0  0
 14 16  2  0  0  0  0
 14 17  1  0  0  0  0
 15 18  2  0  0  0  0
 15 19  1  0  0  0  0
 16 21  1  0  0  0  0
 16 41  1  0  0  0  0
 17 22  2  0  0  0  0
 17 42  1  0  0  0  0
 18 23  1  0  0  0  0
 18 43  1  0  0  0  0
 19 26  2  0  0  0  0
 19 44  1  0  0  0  0
 20 21  2  0  0  0  0
 20 22  1  0  0  0  0
 20 25  1  0  0  0  0
 21 45  1  0  0  0  0
 22 46  1  0  0  0  0
 23 24  2  0  0  0  0
 23 27  1  0  0  0  0
 24 26  1  0  0  0  0
 25 47  1  0  0  0  0
 25 48  1  0  0  0  0
 26 49  1  0  0  0  0
 27 50  1  0  0  0  0
 28 52  1  0  0  0  0
 28 53  1  0  0  0  0
 28 54  1  0  0  0  0
M  END
> <PUBCHEM_COMPOUND_CID>
25009016

> <PUBCHEM_CONFORMER_RMSD>
1

> <PUBCHEM_CONFORMER_DIVERSEORDER>
1
96
216
39
34
95
192
215
314
226
253
37
259
82
250
214
243
266
310
85
10
298
328
45
62
271
238
309
338
78
318
33
84
260
290
300
209
127
339
126
172
87
193
334
164
335
153
147
354
111
159
361
130
257
49
30
67
110
299
176
336
341
322
184
242
342
332
52
55
281
327
343
102
134
163
311
301
166
351
308
241
296
252
121
108
93
355
4
207
239
324
210
63
258
137
204
89
219
287
142
237
118
5
107
174
191
325
114
24
139
357
323
200
201
297
206
356
41
273
155
182
68
148
65
124
71
312
165
244
234
158
236
256
211
292
367
274
240
170
264
345
179
141
195
131
319
152
269
217
330
196
75
231
278
333
276
248
254
247
313
245
18
143
112
321
51
73
6
105
117
270
366
173
40
25
53
337
46
154
218
348
86
88
346
100
280
168
331
156
228
362
265
202
104
275
113
140
326
329
347
145
80
302
188
197
69
340
128
2
232
15
72
177
150
119
58
109
32
64
261
116
213
352
120
360
16
283
167
190
56
171
94
286
358
70
123
246
106
223
350
97
133
144
289
363
295
235
263
364
353
282
175
11
359
178
57
3
17
221
66
92
267
42
83
125
277
98
198
288
43
186
205
26
161
233
38
317
81
122
132
115
162
315
103
230
13
285
36
59
48
50
21
229
28
101
304
222
44
12
262
272
268
9
183
344
291
303
29
365
31
22
60
27
180
135
306
307
293
157
224
194
149
316
77
151
225
349
169
47
305
294
90
249
23
220
160
208
146
185
251
54
187
76
19
199
255
99
212
8
14
181
129
74
284
279
227
203
91
20
136
35
138
79
189
320
7
61

> <PUBCHEM_MMFF94_PARTIAL_CHARGES>
35
1 1.09
12 0.27
13 0.41
14 -0.14
15 0.1
16 -0.15
17 -0.15
18 -0.15
19 -0.15
2 -0.65
20 -0.14
21 -0.15
22 -0.15
24 -0.15
25 0.25
26 -0.15
27 0.14
28 0.11
3 -0.65
4 -0.81
40 0.4
41 0.15
42 0.15
43 0.15
44 0.15
45 0.15
46 0.15
49 0.15
5 -0.87
50 0.15
51 0.27
6 0.3
7 -0.71
8 0.37
9 0.27

> <PUBCHEM_EFFECTIVE_ROTOR_COUNT>
7.2

> <PUBCHEM_PHARMACOPHORE_FEATURES>
11
1 2 acceptor
1 3 acceptor
1 4 cation
1 5 cation
1 5 donor
1 6 donor
1 7 acceptor
5 6 7 23 24 27 rings
6 14 16 17 20 21 22 rings
6 15 18 19 23 24 26 rings
6 4 8 9 10 11 12 rings

> <PUBCHEM_HEAVY_ATOM_COUNT>
28

> <PUBCHEM_ATOM_DEF_STEREO_COUNT>
0

> <PUBCHEM_ATOM_UDEF_STEREO_COUNT>
1

> <PUBCHEM_BOND_DEF_STEREO_COUNT>
0

> <PUBCHEM_BOND_UDEF_STEREO_COUNT>
0

> <PUBCHEM_ISOTOPIC_ATOM_COUNT>
0

> <PUBCHEM_COMPONENT_COUNT>
1

> <PUBCHEM_CACTVS_TAUTO_COUNT>
2

> <PUBCHEM_CONFORMER_ID>
017D9B7800000001

> <PUBCHEM_MMFF94_ENERGY>
64.799

> <PUBCHEM_FEATURE_SELFOVERLAP>
55.929

> <PUBCHEM_SHAPE_FINGERPRINT>
10074138 170 16830898186817958416
1100329 8 18194679500445421710
11014199 57 18124314908868792999
12156800 1 17406528777840326240
12553582 1 17689178724374609288
13122387 1 17908429052081745411
13560911 43 18187638077162079731
1361 2 18193559097923073577
14117953 113 17836929997340230229
14251757 5 16895130595144303148
14659021 117 17182204830534932010
14931854 50 18198346358459592365
14932702 115 17406008716897903225
15110567 62 18267868466031022745
152267 14 17834955274235561751
15351339 4 17691393531250066626
17138139 8 17700126896432945133
17627616 140 18193831776295189046
19930381 70 18410012122304810283
20028762 73 18343588451923313860
20764821 26 18337971054895031283
20775530 9 18265051319165678561
21133410 52 18338785772360108026
22113638 7 17689998938484338493
238 59 18335144244928498000
3882209 13 17759203372910513667
463206 1 18411704262004658065
5309563 4 18266748986636129225
5312544 6 18337674221109962527

> <PUBCHEM_SHAPE_MULTIPOLES>
548.41
9.25
7.18
1.26
9.48
2.81
0.09
2.47
-1.6
-6.06
-0.6
0.56
-0.5
-2.62

> <PUBCHEM_SHAPE_SELFOVERLAP>
1168.459

> <PUBCHEM_SHAPE_VOLUME>
307.7

> <PUBCHEM_COORDINATE_TYPE>
2
5
10

$$$$
44595809
  -OEChem-05102415113D

 48 51  0     1  0  0  0  0  0999 V2000
    2.6806    0.1994    0.1674 N   0  0  1  0  0  0  0  0  0  0  0  0
    0.2964    2.0728   -0.8024 N   0  0  0  0  0  0  0  0  0  0  0  0
   -4.6631    0.1586    0.5082 N   0  0  0  0  0  0  0  0  0  0  0  0
   -4.7778   -0.9691   -0.2127 N   0  0  0  0  0  0  0  0  0  0  0  0
    1.1692    2.8342    0.0640 C   0  0  2  0  0  0  0  0  0  0  0  0
    2.4426    3.2593   -0.6700 C   0  0  0  0  0  0  0  0  0  0  0  0
    1.4541    2.1022    1.3763 C   0  0  0  0  0  0  0  0  0  0  0  0
    3.3568    2.1448   -1.1740 C   0  0  0  0  0  0  0  0  0  0  0  0
    1.8408    0.6200    1.2924 C   0  0  0  0  0  0  0  0  0  0  0  0
    3.7851    1.1102   -0.1313 C   0  0  0  0  0  0  0  0  0  0  0  0
    3.1588   -1.1668    0.3860 C   0  0  0  0  0  0  0  0  0  0  0  0
   -0.9620    1.6476   -0.4279 C   0  0  0  0  0  0  0  0  0  0  0  0
    2.0586   -2.1801    0.2148 C   0  0  0  0  0  0  0  0  0  0  0  0
   -1.4789    0.4655   -0.9729 C   0  0  0  0  0  0  0  0  0  0  0  0
   -1.7010    2.3998    0.4870 C   0  0  0  0  0  0  0  0  0  0  0  0
    1.2799   -2.5556    1.3095 C   0  0  0  0  0  0  0  0  0  0  0  0
    1.8176   -2.7432   -1.0384 C   0  0  0  0  0  0  0  0  0  0  0  0
   -2.7616    0.0497   -0.5788 C   0  0  0  0  0  0  0  0  0  0  0  0
   -3.4761    0.8177    0.3340 C   0  0  0  0  0  0  0  0  0  0  0  0
   -2.9792    1.9989    0.8892 C   0  0  0  0  0  0  0  0  0  0  0  0
    0.2604   -3.4943    1.1511 C   0  0  0  0  0  0  0  0  0  0  0  0
    0.7982   -3.6819   -1.1968 C   0  0  0  0  0  0  0  0  0  0  0  0
   -3.6192   -1.0321   -0.8727 C   0  0  0  0  0  0  0  0  0  0  0  0
    0.0196   -4.0576   -0.1020 C   0  0  0  0  0  0  0  0  0  0  0  0
    0.6795    3.7833    0.3184 H   0  0  0  0  0  0  0  0  0  0  0  0
    2.1656    3.8806   -1.5322 H   0  0  0  0  0  0  0  0  0  0  0  0
    3.0282    3.9103   -0.0074 H   0  0  0  0  0  0  0  0  0  0  0  0
    2.2546    2.6407    1.9021 H   0  0  0  0  0  0  0  0  0  0  0  0
    0.5868    2.1791    2.0442 H   0  0  0  0  0  0  0  0  0  0  0  0
    2.8924    1.6381   -2.0297 H   0  0  0  0  0  0  0  0  0  0  0  0
    4.2632    2.6181   -1.5742 H   0  0  0  0  0  0  0  0  0  0  0  0
    2.3164    0.3633    2.2491 H   0  0  0  0  0  0  0  0  0  0  0  0
    0.8971    0.0658    1.2551 H   0  0  0  0  0  0  0  0  0  0  0  0
    4.6230    0.5641   -0.5842 H   0  0  0  0  0  0  0  0  0  0  0  0
    4.1926    1.5836    0.7704 H   0  0  0  0  0  0  0  0  0  0  0  0
    0.7338    1.5513   -1.5552 H   0  0  0  0  0  0  0  0  0  0  0  0
    3.9366   -1.4254   -0.3459 H   0  0  0  0  0  0  0  0  0  0  0  0
    3.6430   -1.2815    1.3656 H   0  0  0  0  0  0  0  0  0  0  0  0
   -0.9049   -0.1234   -1.6830 H   0  0  0  0  0  0  0  0  0  0  0  0
   -1.3257    3.3299    0.9047 H   0  0  0  0  0  0  0  0  0  0  0  0
    1.4624   -2.1364    2.2953 H   0  0  0  0  0  0  0  0  0  0  0  0
    2.4145   -2.4572   -1.9004 H   0  0  0  0  0  0  0  0  0  0  0  0
   -3.5570    2.5839    1.5961 H   0  0  0  0  0  0  0  0  0  0  0  0
   -0.3444   -3.7884    2.0039 H   0  0  0  0  0  0  0  0  0  0  0  0
    0.6097   -4.1196   -2.1728 H   0  0  0  0  0  0  0  0  0  0  0  0
   -3.4457   -1.8638   -1.5410 H   0  0  0  0  0  0  0  0  0  0  0  0
   -5.4365    0.4252    1.1045 H   0  0  0  0  0  0  0  0  0  0  0  0
   -0.7743   -4.7882   -0.2255 H   0  0  0  0  0  0  0  0  0  0  0  0
  1  9  1  0  0  0  0
  1 10  1  0  0  0  0
  1 11  1  0  0  0  0
  2  5  1  0  0  0  0
  2 12  1  0  0  0  0
  2 36  1  0  0  0  0
  3  4  1  0  0  0  0
  3 19  1  0  0  0  0
  3 47  1  0  0  0  0
  4 23  2  0  0  0  0
  5  6  1  0  0  0  0
  5  7  1  0  0  0  0
  5 25  1  0  0  0  0
  6  8  1  0  0  0  0
  6 26  1  0  0  0  0
  6 27  1  0  0  0  0
  7  9  1  0  0  0  0
  7 28  1  0  0  0  0
  7 29  1  0  0  0  0
  8 10  1  0  0  0  0
  8 30  1  0  0  0  0
  8 31  1  0  0  0  0
  9 32  1  0  0  0  0
  9 33  1  0  0  0  0
 10 34  1  0  0  0  0
 10 35  1  0  0  0  0
 11 13  1  0  0  0  0
 11 37  1  0  0  0  0
 11 38  1  0  0  0  0
 12 14  2  0  0  0  0
 12 15  1  0  0  0  0
 13 16  2  0  0  0  0
 13 17  1  0  0  0  0
 14 18  1  0  0  0  0
 14 39  1  0  0  0  0
 15 20  2  0  0  0  0
 15 40  1  0  0  0  0
 16 21  1  0  0  0  0
 16 41  1  0  0  0  0
 17 22  2  0  0  0  0
 17 42  1  0  0  0  0
 18 19  2  0  0  0  0
 18 23  1  0  0  0  0
 19 20  1  0  0  0  0
 20 43  1  0  0  0  0
 21 24  2  0  0  0  0
 21 44  1  0  0  0  0
 22 24  1  0  0  0  0
 22 45  1  0  0  0  0
 23 46  1  0  0  0  0
 24 48  1  0  0  0  0
M  END
> <PUBCHEM_COMPOUND_CID>
44595809

> <PUBCHEM_CONFORMER_RMSD>
0.8

> <PUBCHEM_CONFORMER_DIVERSEORDER>
5
216
202
235
327
285
131
63
219
50
43
190
74
247
351
301
314
361
111
334
331
27
66
238
39
342
379
308
268
255
269
70
341
377
51
116
184
244
121
167
370
4
187
217
11
253
34
304
258
29
123
324
220
229
359
303
356
32
154
109
223
307
293
3
312
168
146
338
224
83
148
294
280
329
105
19
209
263
246
164
221
343
110
196
134
232
249
257
95
311
12
8
126
87
179
374
344
88
260
137
346
375
289
13
218
90
234
2
191
37
139
231
208
277
103
210
309
276
145
120
284
80
195
252
292
153
243
372
94
42
41
350
143
62
279
55
140
15
358
236
214
124
297
68
132
155
158
278
204
96
233
176
336
259
181
315
291
46
335
296
107
142
270
72
117
256
93
162
207
363
354
250
6
287
1
160
213
325
262
91
133
177
129
288
369
151
330
178
290
282
283
225
198
150
365
313
163
254
317
206
173
102
60
36
373
366
357
321
22
61
306
199
122
17
136
349
320
371
24
130
352
274
112
141
47
52
272
192
212
10
98
171
144
31
170
159
316
339
353
328
340
275
323
169
376
127
71
347
295
59
333
108
326
183
7
100
58
125
240
286
149
302
322
175
45
26
222
200
9
18
56
76
345
194
152
64
135
205
147
161
82
265
25
228
251
305
281
84
33
298
101
273
203
264
99
186
40
28
138
78
362
174
49
119
73
165
20
348
69
118
266
48
193
332
318
23
197
77
360
67
245
319
16
14
115
53
182
267
230
106
54
237
211
239
189
21
166
85
38
242
364
185
378
201
114
180
300
65
57
368
113
35
367
97
128
248
156
226
337
44
75
299
188
92
310
271
104
215
172
30
157
79
241
81
261
86
227
355
89

> <PUBCHEM_MMFF94_PARTIAL_CHARGES>
31
1 -0.81
10 0.27
11 0.41
12 0.1
13 -0.14
14 -0.15
15 -0.15
16 -0.15
17 -0.15
19 -0.15
2 -0.87
20 -0.15
21 -0.15
22 -0.15
23 0.14
24 -0.15
3 0.3
36 0.4
39 0.15
4 -0.71
40 0.15
41 0.15
42 0.15
43 0.15
44 0.15
45 0.15
46 0.15
47 0.27
48 0.15
5 0.37
9 0.27

> <PUBCHEM_EFFECTIVE_ROTOR_COUNT>
5.4

> <PUBCHEM_PHARMACOPHORE_FEATURES>
9
1 1 cation
1 2 cation
1 2 donor
1 3 donor
1 4 acceptor
5 3 4 18 19 23 rings
6 12 14 15 18 19 20 rings
6 13 16 17 21 22 24 rings
7 1 5 6 7 8 9 10 rings

> <PUBCHEM_HEAVY_ATOM_COUNT>
24

> <PUBCHEM_ATOM_DEF_STEREO_COUNT>
0

> <PUBCHEM_ATOM_UDEF_STEREO_COUNT>
1

> <PUBCHEM_BOND_DEF_STEREO_COUNT>
0

> <PUBCHEM_BOND_UDEF_STEREO_COUNT>
0

> <PUBCHEM_ISOTOPIC_ATOM_COUNT>
0

> <PUBCHEM_COMPONENT_COUNT>
1

> <PUBCHEM_CACTVS_TAUTO_COUNT>
2

> <PUBCHEM_CONFORMER_ID>
02A87A6100000005

> <PUBCHEM_MMFF94_ENERGY>
68.3487

> <PUBCHEM_FEATURE_SELFOVERLAP>
45.763

> <PUBCHEM_SHAPE_FINGERPRINT>
10064457 181 18267305528635728588
10616163 171 18411139164504161451
1100329 8 18193831772522175148
12156800 1 17250095709089571022
12553582 1 17761208817320144462
12596599 1 17699294265425167419
12788726 201 16750435986036901116
13122387 1 17619344312646194651
13140716 1 17906155597401500680
13533116 47 18271802373044368521
14178342 30 18269541750655863624
17138139 8 17409057624530002463
17492 54 18114192951432065500
19930381 70 18409730621516338251
21197605 99 17976267051849115435
21304303 94 18266200472463429284
21421861 104 18268445559306631153
2255824 54 18410013247280702356
23559900 14 18339351947453530373
238 59 18408047324637214746
3052486 1 17686043299643681552
3117164 225 17908728150216997505
314173 41 18049165466774195217
35225 105 17977939412711939918
463206 1 18126551552491834223
563151 248 16553168868576157466
6287921 2 18271526399092731887
6443956 14 18337107843920598405
7097593 13 18126008169966301689
7226269 152 14946730148597677388

> <PUBCHEM_SHAPE_MULTIPOLES>
473.98
6.91
5.38
1.27
6.8
3.74
0.11
-1.56
-0.32
-3.41
-0.31
-0.36
0.19
-0.84

> <PUBCHEM_SHAPE_SELFOVERLAP>
1024.994

> <PUBCHEM_SHAPE_VOLUME>
257.9

> <PUBCHEM_COORDINATE_TYPE>
2
5
10

$$$$
57446040
  -OEChem-05102415113D

 53 56  0     1  0  0  0  0  0999 V2000
   -0.5472    2.9727    0.0939 N   0  0  1  0  0  0  0  0  0  0  0  0
    2.8931    1.5725   -0.3067 N   0  0  0  0  0  0  0  0  0  0  0  0
   -4.2988   -2.2069    0.1284 N   0  0  0  0  0  0  0  0  0  0  0  0
    3.1729   -3.8916   -0.0143 N   0  0  0  0  0  0  0  0  0  0  0  0
    2.1059   -4.2330    0.7271 N   0  0  0  0  0  0  0  0  0  0  0  0
    1.8197    2.2906    0.3464 C   0  0  1  0  0  0  0  0  0  0  0  0
    2.2327    3.7454    0.5687 C   0  0  0  0  0  0  0  0  0  0  0  0
    0.5503    2.2024   -0.5095 C   0  0  0  0  0  0  0  0  0  0  0  0
    1.0601    4.5515    1.1167 C   0  0  0  0  0  0  0  0  0  0  0  0
   -0.1835    4.3889    0.2413 C   0  0  0  0  0  0  0  0  0  0  0  0
   -1.7661    2.8378   -0.7033 C   0  0  0  0  0  0  0  0  0  0  0  0
   -2.4349    1.5067   -0.4843 C   0  0  0  0  0  0  0  0  0  0  0  0
    3.0243    0.1953   -0.2735 C   0  0  0  0  0  0  0  0  0  0  0  0
    2.0799   -0.5688    0.4235 C   0  0  0  0  0  0  0  0  0  0  0  0
   -2.6466    0.6464   -1.5618 C   0  0  0  0  0  0  0  0  0  0  0  0
   -2.8422    1.1336    0.7965 C   0  0  0  0  0  0  0  0  0  0  0  0
    4.0938   -0.4124   -0.9336 C   0  0  0  0  0  0  0  0  0  0  0  0
    2.2308   -1.9654    0.4451 C   0  0  0  0  0  0  0  0  0  0  0  0
    3.3051   -2.5448   -0.2206 C   0  0  0  0  0  0  0  0  0  0  0  0
   -3.2657   -0.5867   -1.3585 C   0  0  0  0  0  0  0  0  0  0  0  0
   -3.4614   -0.0996    0.9999 C   0  0  0  0  0  0  0  0  0  0  0  0
    4.2575   -1.8015   -0.9211 C   0  0  0  0  0  0  0  0  0  0  0  0
   -3.6732   -0.9597   -0.0776 C   0  0  0  0  0  0  0  0  0  0  0  0
    1.5352   -3.0586    1.0048 C   0  0  0  0  0  0  0  0  0  0  0  0
   -4.7189   -2.6068    1.4567 C   0  0  0  0  0  0  0  0  0  0  0  0
   -4.5229   -3.1082   -0.9844 C   0  0  0  0  0  0  0  0  0  0  0  0
    1.6294    1.8796    1.3467 H   0  0  0  0  0  0  0  0  0  0  0  0
    2.5693    4.1935   -0.3756 H   0  0  0  0  0  0  0  0  0  0  0  0
    3.0819    3.8010    1.2604 H   0  0  0  0  0  0  0  0  0  0  0  0
    0.7638    2.5699   -1.5239 H   0  0  0  0  0  0  0  0  0  0  0  0
    0.2510    1.1560   -0.6235 H   0  0  0  0  0  0  0  0  0  0  0  0
    0.8358    4.2228    2.1395 H   0  0  0  0  0  0  0  0  0  0  0  0
    1.3354    5.6106    1.1750 H   0  0  0  0  0  0  0  0  0  0  0  0
   -0.0083    4.8507   -0.7394 H   0  0  0  0  0  0  0  0  0  0  0  0
   -1.0047    4.9376    0.7184 H   0  0  0  0  0  0  0  0  0  0  0  0
   -1.5697    3.0181   -1.7687 H   0  0  0  0  0  0  0  0  0  0  0  0
   -2.5032    3.5969   -0.4055 H   0  0  0  0  0  0  0  0  0  0  0  0
    3.5459    2.0950   -0.8808 H   0  0  0  0  0  0  0  0  0  0  0  0
    1.2372   -0.1490    0.9584 H   0  0  0  0  0  0  0  0  0  0  0  0
   -2.3327    0.9240   -2.5645 H   0  0  0  0  0  0  0  0  0  0  0  0
   -2.6884    1.7958    1.6446 H   0  0  0  0  0  0  0  0  0  0  0  0
    4.8215    0.1918   -1.4718 H   0  0  0  0  0  0  0  0  0  0  0  0
   -3.4070   -1.2203   -2.2284 H   0  0  0  0  0  0  0  0  0  0  0  0
   -3.7607   -0.3430    2.0145 H   0  0  0  0  0  0  0  0  0  0  0  0
    5.0875   -2.2754   -1.4331 H   0  0  0  0  0  0  0  0  0  0  0  0
    0.6353   -3.0463    1.6033 H   0  0  0  0  0  0  0  0  0  0  0  0
    3.7765   -4.6309   -0.3520 H   0  0  0  0  0  0  0  0  0  0  0  0
   -5.1846   -3.5987    1.4526 H   0  0  0  0  0  0  0  0  0  0  0  0
   -5.4657   -1.9144    1.8610 H   0  0  0  0  0  0  0  0  0  0  0  0
   -3.8650   -2.6670    2.1407 H   0  0  0  0  0  0  0  0  0  0  0  0
   -5.0193   -4.0311   -0.6642 H   0  0  0  0  0  0  0  0  0  0  0  0
   -3.5763   -3.4083   -1.4474 H   0  0  0  0  0  0  0  0  0  0  0  0
   -5.1729   -2.6515   -1.7391 H   0  0  0  0  0  0  0  0  0  0  0  0
  1  8  1  0  0  0  0
  1 10  1  0  0  0  0
  1 11  1  0  0  0  0
  2  6  1  0  0  0  0
  2 13  1  0  0  0  0
  2 38  1  0  0  0  0
  3 23  1  0  0  0  0
  3 25  1  0  0  0  0
  3 26  1  0  0  0  0
  4  5  1  0  0  0  0
  4 19  1  0  0  0  0
  4 47  1  0  0  0  0
  5 24  2  0  0  0  0
  6  7  1  0  0  0  0
  6  8  1  0  0  0  0
  6 27  1  0  0  0  0
  7  9  1  0  0  0  0
  7 28  1  0  0  0  0
  7 29  1  0  0  0  0
  8 30  1  0  0  0  0
  8 31  1  0  0  0  0
  9 10  1  0  0  0  0
  9 32  1  0  0  0  0
  9 33  1  0  0  0  0
 10 34  1  0  0  0  0
 10 35  1  0  0  0  0
 11 12  1  0  0  0  0
 11 36  1  0  0  0  0
 11 37  1  0  0  0  0
 12 15  2  0  0  0  0
 12 16  1  0  0  0  0
 13 14  2  0  0  0  0
 13 17  1  0  0  0  0
 14 18  1  0  0  0  0
 14 39  1  0  0  0  0
 15 20  1  0  0  0  0
 15 40  1  0  0  0  0
 16 21  2  0  0  0  0
 16 41  1  0  0  0  0
 17 22  2  0  0  0  0
 17 42  1  0  0  0  0
 18 19  2  0  0  0  0
 18 24  1  0  0  0  0
 19 22  1  0  0  0  0
 20 23  2  0  0  0  0
 20 43  1  0  0  0  0
 21 23  1  0  0  0  0
 21 44  1  0  0  0  0
 22 45  1  0  0  0  0
 24 46  1  0  0  0  0
 25 48  1  0  0  0  0
 25 49  1  0  0  0  0
 25 50  1  0  0  0  0
 26 51  1  0  0  0  0
 26 52  1  0  0  0  0
 26 53  1  0  0  0  0
M  END
> <PUBCHEM_COMPOUND_CID>
57446040

> <PUBCHEM_CONFORMER_RMSD>
0.8

> <PUBCHEM_CONFORMER_DIVERSEORDER>
2
87
103
56
21
152
45
34
96
167
130
66
53
72
106
92
139
120
101
173
126
138
122
169
42
23
43
5
117
129
16
153
178
163
20
67
48
115
17
171
149
116
44
124
79
85
51
65
95
140
11
136
143
174
162
15
62
113
133
90
25
14
181
151
180
33
6
148
71
40
31
137
39
127
88
35
111
75
99
94
147
93
150
168
145
141
166
109
27
4
107
158
175
134
161
105
78
154
112
100
132
142
155
165
82
84
10
104
50
80
123
26
70
91
176
55
29
114
64
179
22
30
12
160
76
172
170
86
156
18
159
77
128
3
68
8
74
54
108
125
83
89
110
135
131
7
1
118
121
144
58
61
97
119
164
49
52
24
146
69
63
13
102
73
47
28
19
81
37
98
157
60
32
36
59
46
9
41
177
38
57

> <PUBCHEM_MMFF94_PARTIAL_CHARGES>
33
1 -0.81
10 0.27
11 0.41
12 -0.14
13 0.1
14 -0.15
15 -0.15
16 -0.15
17 -0.15
19 -0.15
2 -0.87
20 -0.15
21 -0.15
22 -0.15
23 0.1
24 0.14
25 0.37
26 0.37
3 -0.84
38 0.4
39 0.15
4 0.3
40 0.15
41 0.15
42 0.15
43 0.15
44 0.15
45 0.15
46 0.15
47 0.27
5 -0.71
6 0.37
8 0.27

> <PUBCHEM_EFFECTIVE_ROTOR_COUNT>
6.2

> <PUBCHEM_PHARMACOPHORE_FEATURES>
10
1 1 cation
1 2 cation
1 2 donor
1 3 cation
1 4 donor
1 5 acceptor
5 4 5 18 19 24 rings
6 1 6 7 8 9 10 rings
6 12 15 16 20 21 23 rings
6 13 14 17 18 19 22 rings

> <PUBCHEM_HEAVY_ATOM_COUNT>
26

> <PUBCHEM_ATOM_DEF_STEREO_COUNT>
0

> <PUBCHEM_ATOM_UDEF_STEREO_COUNT>
1

> <PUBCHEM_BOND_DEF_STEREO_COUNT>
0

> <PUBCHEM_BOND_UDEF_STEREO_COUNT>
0

> <PUBCHEM_ISOTOPIC_ATOM_COUNT>
0

> <PUBCHEM_COMPONENT_COUNT>
1

> <PUBCHEM_CACTVS_TAUTO_COUNT>
2

> <PUBCHEM_CONFORMER_ID>
036C8E9800000002

> <PUBCHEM_MMFF94_ENERGY>
78.7825

> <PUBCHEM_FEATURE_SELFOVERLAP>
50.838

> <PUBCHEM_SHAPE_FINGERPRINT>
10616163 171 17691688883682328886
10928967 22 18340219543352721983
11014199 57 18339360738766535594
114674 6 18192992844654128145
12100795 323 17182788103993789347
12107183 9 18199768989768795873
12156800 1 8204379449773383665
12553582 1 18267861683760808096
12788726 201 17695340374383167396
13122387 1 18408601431263788943
13402501 40 18044941422093741314
13533116 47 18197220454880046405
1361 2 17833830847966543619
13631057 29 18267307530654627404
13692114 37 17047096278825051384
138480 1 18411417336350549049
14251757 5 17977951180869400918
14279260 333 17105107101177028114
14659021 117 17832684795872396058
14863182 85 17975418236707818549
152267 14 18267576905949550262
15721738 15 17900789740472861599
16719943 64 16897362010716276962
17809404 112 18121746526962315791
19930381 70 18337389473705743475
20028762 73 17768243875203868500
20764821 26 17688593079492138478
20775438 99 17762565825860885357
20775530 9 18334297565277522971
21133410 38 17334795557071502203
21197605 99 17185879935166008147
21315759 227 18260540100461666158
229767 44 16245171256878557274
23379529 103 17838627660690144150
23728640 28 17332239797504221848
3117164 225 18341631312857945465
3383291 50 17762047741014186513
3737641 26 18338530672069771038
44426695 316 14518973872957906946
463206 1 18265336114115133779
5265222 85 16611399914963804742
5309563 4 18411702114478935343
66674814 147 16825840467699820127
86090 222 17826240876049951355
9795274 37 18262228924404238362

> <PUBCHEM_SHAPE_MULTIPOLES>
510.16
9.11
6.83
1.22
6.1
2.16
0.06
-9.17
0.82
-3.74
-1.8
0.83
-0.2
0.72

> <PUBCHEM_SHAPE_SELFOVERLAP>
1099.171

> <PUBCHEM_SHAPE_VOLUME>
281.1

> <PUBCHEM_COORDINATE_TYPE>
2
5
10

$$$$
57446041
  -OEChem-05102415113D

 51 54  0     1  0  0  0  0  0999 V2000
   -1.8911    2.3061   -0.1031 N   0  0  2  0  0  0  0  0  0  0  0  0
    1.8283    2.4412    0.2689 N   0  0  0  0  0  0  0  0  0  0  0  0
    4.3207   -2.4323    0.0446 N   0  0  0  0  0  0  0  0  0  0  0  0
    3.4815   -3.1944   -0.6764 N   0  0  0  0  0  0  0  0  0  0  0  0
    0.5484    2.6435   -0.3779 C   0  0  1  0  0  0  0  0  0  0  0  0
   -0.5708    2.0611    0.4955 C   0  0  0  0  0  0  0  0  0  0  0  0
    0.3276    4.1365   -0.6237 C   0  0  0  0  0  0  0  0  0  0  0  0
   -1.0758    4.3853   -1.1653 C   0  0  0  0  0  0  0  0  0  0  0  0
   -2.1385    3.7446   -0.2718 C   0  0  0  0  0  0  0  0  0  0  0  0
   -2.9433    1.6982    0.7112 C   0  0  0  0  0  0  0  0  0  0  0  0
   -3.0117    0.2068    0.5165 C   0  0  0  0  0  0  0  0  0  0  0  0
    2.5120    1.2388    0.2520 C   0  0  0  0  0  0  0  0  0  0  0  0
   -2.4939   -0.6478    1.4897 C   0  0  0  0  0  0  0  0  0  0  0  0
   -3.5902   -0.3202   -0.6383 C   0  0  0  0  0  0  0  0  0  0  0  0
    1.9580    0.1422   -0.4204 C   0  0  0  0  0  0  0  0  0  0  0  0
    3.7422    1.1348    0.9038 C   0  0  0  0  0  0  0  0  0  0  0  0
    2.6680   -1.0701   -0.4261 C   0  0  0  0  0  0  0  0  0  0  0  0
   -2.5545   -2.0293    1.3082 C   0  0  0  0  0  0  0  0  0  0  0  0
   -3.6507   -1.7018   -0.8197 C   0  0  0  0  0  0  0  0  0  0  0  0
   -3.1330   -2.5565    0.1536 C   0  0  0  0  0  0  0  0  0  0  0  0
    3.8910   -1.1462    0.2309 C   0  0  0  0  0  0  0  0  0  0  0  0
    4.4609   -0.0652    0.9070 C   0  0  0  0  0  0  0  0  0  0  0  0
   -3.1971   -4.0340   -0.0403 C   0  0  0  0  0  0  0  0  0  0  0  0
    2.4772   -2.3622   -0.9609 C   0  0  0  0  0  0  0  0  0  0  0  0
   -1.9651   -4.5793   -0.7580 C   0  0  0  0  0  0  0  0  0  0  0  0
    0.5358    2.1737   -1.3703 H   0  0  0  0  0  0  0  0  0  0  0  0
   -0.4088    0.9874    0.6213 H   0  0  0  0  0  0  0  0  0  0  0  0
   -0.5184    2.4987    1.5030 H   0  0  0  0  0  0  0  0  0  0  0  0
    1.0748    4.5228   -1.3274 H   0  0  0  0  0  0  0  0  0  0  0  0
    0.4588    4.6985    0.3105 H   0  0  0  0  0  0  0  0  0  0  0  0
   -1.2567    5.4636   -1.2402 H   0  0  0  0  0  0  0  0  0  0  0  0
   -1.1539    3.9771   -2.1810 H   0  0  0  0  0  0  0  0  0  0  0  0
   -3.1154    3.9028   -0.7448 H   0  0  0  0  0  0  0  0  0  0  0  0
   -2.1599    4.2536    0.7008 H   0  0  0  0  0  0  0  0  0  0  0  0
   -3.9270    2.0947    0.4220 H   0  0  0  0  0  0  0  0  0  0  0  0
   -2.8335    1.9525    1.7743 H   0  0  0  0  0  0  0  0  0  0  0  0
    2.2135    3.1959    0.8264 H   0  0  0  0  0  0  0  0  0  0  0  0
   -2.0394   -0.2506    2.3935 H   0  0  0  0  0  0  0  0  0  0  0  0
   -3.9960    0.3355   -1.4042 H   0  0  0  0  0  0  0  0  0  0  0  0
    1.0130    0.1698   -0.9482 H   0  0  0  0  0  0  0  0  0  0  0  0
    4.1627    1.9938    1.4229 H   0  0  0  0  0  0  0  0  0  0  0  0
   -2.1453   -2.6845    2.0728 H   0  0  0  0  0  0  0  0  0  0  0  0
   -4.1019   -2.1000   -1.7247 H   0  0  0  0  0  0  0  0  0  0  0  0
    5.4165   -0.1479    1.4126 H   0  0  0  0  0  0  0  0  0  0  0  0
   -3.3041   -4.5345    0.9302 H   0  0  0  0  0  0  0  0  0  0  0  0
   -4.0968   -4.2981   -0.6101 H   0  0  0  0  0  0  0  0  0  0  0  0
    1.6461   -2.7308   -1.5457 H   0  0  0  0  0  0  0  0  0  0  0  0
    5.1771   -2.8531    0.3830 H   0  0  0  0  0  0  0  0  0  0  0  0
   -1.8550   -4.1316   -1.7515 H   0  0  0  0  0  0  0  0  0  0  0  0
   -2.0484   -5.6638   -0.8807 H   0  0  0  0  0  0  0  0  0  0  0  0
   -1.0514   -4.3697   -0.1915 H   0  0  0  0  0  0  0  0  0  0  0  0
  1  6  1  0  0  0  0
  1  9  1  0  0  0  0
  1 10  1  0  0  0  0
  2  5  1  0  0  0  0
  2 12  1  0  0  0  0
  2 37  1  0  0  0  0
  3  4  1  0  0  0  0
  3 21  1  0  0  0  0
  3 48  1  0  0  0  0
  4 24  2  0  0  0  0
  5  6  1  0  0  0  0
  5  7  1  0  0  0  0
  5 26  1  0  0  0  0
  6 27  1  0  0  0  0
  6 28  1  0  0  0  0
  7  8  1  0  0  0  0
  7 29  1  0  0  0  0
  7 30  1  0  0  0  0
  8  9  1  0  0  0  0
  8 31  1  0  0  0  0
  8 32  1  0  0  0  0
  9 33  1  0  0  0  0
  9 34  1  0  0  0  0
 10 11  1  0  0  0  0
 10 35  1  0  0  0  0
 10 36  1  0  0  0  0
 11 13  2  0  0  0  0
 11 14  1  0  0  0  0
 12 15  2  0  0  0  0
 12 16  1  0  0  0  0
 13 18  1  0  0  0  0
 13 38  1  0  0  0  0
 14 19  2  0  0  0  0
 14 39  1  0  0  0  0
 15 17  1  0  0  0  0
 15 40  1  0  0  0  0
 16 22  2  0  0  0  0
 16 41  1  0  0  0  0
 17 21  2  0  0  0  0
 17 24  1  0  0  0  0
 18 20  2  0  0  0  0
 18 42  1  0  0  0  0
 19 20  1  0  0  0  0
 19 43  1  0  0  0  0
 20 23  1  0  0  0  0
 21 22  1  0  0  0  0
 22 44  1  0  0  0  0
 23 25  1  0  0  0  0
 23 45  1  0  0  0  0
 23 46  1  0  0  0  0
 24 47  1  0  0  0  0
 25 49  1  0  0  0  0
 25 50  1  0  0  0  0
 25 51  1  0  0  0  0
M  END
> <PUBCHEM_COMPOUND_CID>
57446041

> <PUBCHEM_CONFORMER_RMSD>
0.8

> <PUBCHEM_CONFORMER_DIVERSEORDER>
1
23
220
151
130
99
65
97
54
201
144
223
179
182
204
181
32
101
28
150
16
193
127
152
43
114
158
126
60
222
139
71
177
62
115
55
199
68
180
153
89
44
190
120
40
9
84
212
26
129
149
19
87
113
109
207
187
104
175
41
33
56
210
164
189
133
30
7
93
137
61
131
14
70
165
123
162
75
45
170
188
169
200
142
17
211
76
176
96
216
218
178
167
148
128
92
138
46
95
183
192
215
47
206
155
156
105
136
52
134
48
118
100
185
124
196
38
64
205
219
42
143
72
217
112
214
91
83
73
198
35
141
166
171
184
103
58
163
29
11
81
74
31
21
122
135
173
5
108
67
174
160
8
90
86
94
57
159
209
15
161
168
213
197
77
110
172
36
27
25
186
53
2
50
6
147
107
39
140
51
82
145
146
24
3
59
221
121
79
195
12
20
63
106
157
13
194
202
88
203
125
37
4
102
34
116
111
66
132
10
80
119
98
22
154
78
18
117
69
49
191
208
85

> <PUBCHEM_MMFF94_PARTIAL_CHARGES>
31
1 -0.81
10 0.41
11 -0.14
12 0.1
13 -0.15
14 -0.15
15 -0.15
16 -0.15
18 -0.15
19 -0.15
2 -0.87
20 -0.14
21 -0.15
22 -0.15
23 0.14
24 0.14
3 0.3
37 0.4
38 0.15
39 0.15
4 -0.71
40 0.15
41 0.15
42 0.15
43 0.15
44 0.15
47 0.15
48 0.27
5 0.37
6 0.27
9 0.27

> <PUBCHEM_EFFECTIVE_ROTOR_COUNT>
6.2

> <PUBCHEM_PHARMACOPHORE_FEATURES>
10
1 1 cation
1 2 cation
1 2 donor
1 25 hydrophobe
1 3 donor
1 4 acceptor
5 3 4 17 21 24 rings
6 1 5 6 7 8 9 rings
6 11 13 14 18 19 20 rings
6 12 15 16 17 21 22 rings

> <PUBCHEM_HEAVY_ATOM_COUNT>
25

> <PUBCHEM_ATOM_DEF_STEREO_COUNT>
0

> <PUBCHEM_ATOM_UDEF_STEREO_COUNT>
1

> <PUBCHEM_BOND_DEF_STEREO_COUNT>
0

> <PUBCHEM_BOND_UDEF_STEREO_COUNT>
0

> <PUBCHEM_ISOTOPIC_ATOM_COUNT>
0

> <PUBCHEM_COMPONENT_COUNT>
1

> <PUBCHEM_CACTVS_TAUTO_COUNT>
2

> <PUBCHEM_CONFORMER_ID>
036C8E9900000001

> <PUBCHEM_MMFF94_ENERGY>
58.0994

> <PUBCHEM_FEATURE_SELFOVERLAP>
50.837

> <PUBCHEM_SHAPE_FINGERPRINT>
10764073 3 17825420482220768553
107951 10 16811257159533498833
10940486 97 18045233639622611740
11014199 57 18338803436737137535
11552529 35 18060137622104309928
12038231 1 18411703175024984631
12156800 1 11080787286445014199
12422481 6 18052569632822109105
12553582 1 18264506116080603049
13122387 1 16609706657670977527
13402501 40 17980768133944187252
1361 2 16536792098010472963
138480 1 15599762278064706885
14117953 113 18342180028809803807
14251757 5 18050311183919092246
14659021 117 18337095770925577106
14725015 67 18195244412983288695
15110567 62 16826437524120569459
16719943 64 17543916706826853890
19141452 34 18340771442708802865
19930381 70 17905606962548131651
20775530 9 18340772627712938507
21133410 52 17404567262476737558
21344244 181 18120911951105149933
22113638 7 17837204149128714502
23559900 14 18122615326322697009
238 59 17254559816550247753
3027735 51 17979909415916749829
3298306 158 17183625390841398949
463206 1 17547573042735183331
469060 322 17626060430347938484
5265222 85 17615714850796370268
5309563 4 18050572047231561411
550186 72 18335701672340863172
56633871 153 18339935882828098651
613672 6 18265880518568822683
9709674 26 18339357444911494520

> <PUBCHEM_SHAPE_MULTIPOLES>
494.56
8.45
6.71
1.1
2.69
1.93
0.13
-7.82
1.08
-2.17
-2.44
-0.3
-0.06
0.21

> <PUBCHEM_SHAPE_SELFOVERLAP>
1066.896

> <PUBCHEM_SHAPE_VOLUME>
271.8

> <PUBCHEM_COORDINATE_TYPE>
2
5
10

$$$$
57446042
  -OEChem-05102415113D

 47 50  0     1  0  0  0  0  0999 V2000
   -1.4305    2.5991   -0.0943 N   0  0  2  0  0  0  0  0  0  0  0  0
    2.2579    2.1152    0.2952 N   0  0  0  0  0  0  0  0  0  0  0  0
    3.9178   -3.0972   -0.0027 N   0  0  0  0  0  0  0  0  0  0  0  0
    2.9698   -3.6992   -0.7401 N   0  0  0  0  0  0  0  0  0  0  0  0
    1.0330    2.5356   -0.3533 C   0  0  2  0  0  0  0  0  0  0  0  0
    1.0620    4.0484   -0.5744 C   0  0  0  0  0  0  0  0  0  0  0  0
   -0.1725    2.1308    0.5054 C   0  0  0  0  0  0  0  0  0  0  0  0
   -0.2777    4.5331   -1.1173 C   0  0  0  0  0  0  0  0  0  0  0  0
   -1.4373    4.0612   -0.2393 C   0  0  0  0  0  0  0  0  0  0  0  0
   -2.5738    2.1591    0.7051 C   0  0  0  0  0  0  0  0  0  0  0  0
    2.7350    0.8173    0.2604 C   0  0  0  0  0  0  0  0  0  0  0  0
   -2.8849    0.7026    0.4846 C   0  0  0  0  0  0  0  0  0  0  0  0
    2.0131   -0.1623   -0.4330 C   0  0  0  0  0  0  0  0  0  0  0  0
    3.9269    0.5020    0.9153 C   0  0  0  0  0  0  0  0  0  0  0  0
   -3.5368    0.2972   -0.6801 C   0  0  0  0  0  0  0  0  0  0  0  0
   -2.5212   -0.2413    1.4450 C   0  0  0  0  0  0  0  0  0  0  0  0
    2.5144   -1.4745   -0.4566 C   0  0  0  0  0  0  0  0  0  0  0  0
    3.7038   -1.7611    0.2039 C   0  0  0  0  0  0  0  0  0  0  0  0
    4.4388   -0.7996    0.9008 C   0  0  0  0  0  0  0  0  0  0  0  0
   -3.8248   -1.0521   -0.8844 C   0  0  0  0  0  0  0  0  0  0  0  0
   -2.8094   -1.5907    1.2406 C   0  0  0  0  0  0  0  0  0  0  0  0
    2.1177   -2.7088   -1.0143 C   0  0  0  0  0  0  0  0  0  0  0  0
   -3.4610   -1.9961    0.0759 C   0  0  0  0  0  0  0  0  0  0  0  0
   -3.7561   -3.3784   -0.1334 C   0  0  0  0  0  0  0  0  0  0  0  0
   -4.0040   -4.5401   -0.3091 C   0  0  0  0  0  0  0  0  0  0  0  0
    0.9503    2.0905   -1.3537 H   0  0  0  0  0  0  0  0  0  0  0  0
    1.2774    4.5659    0.3699 H   0  0  0  0  0  0  0  0  0  0  0  0
    1.8673    4.3181   -1.2682 H   0  0  0  0  0  0  0  0  0  0  0  0
   -0.1899    1.0432    0.6134 H   0  0  0  0  0  0  0  0  0  0  0  0
   -0.0559    2.5375    1.5205 H   0  0  0  0  0  0  0  0  0  0  0  0
   -0.2786    5.6275   -1.1743 H   0  0  0  0  0  0  0  0  0  0  0  0
   -0.4148    4.1598   -2.1402 H   0  0  0  0  0  0  0  0  0  0  0  0
   -1.3815    4.5510    0.7419 H   0  0  0  0  0  0  0  0  0  0  0  0
   -2.3717    4.3855   -0.7134 H   0  0  0  0  0  0  0  0  0  0  0  0
   -3.4771    2.7166    0.4190 H   0  0  0  0  0  0  0  0  0  0  0  0
   -2.4310    2.3745    1.7730 H   0  0  0  0  0  0  0  0  0  0  0  0
    2.7580    2.7872    0.8671 H   0  0  0  0  0  0  0  0  0  0  0  0
    1.0891    0.0288   -0.9641 H   0  0  0  0  0  0  0  0  0  0  0  0
    4.4792    1.2717    1.4507 H   0  0  0  0  0  0  0  0  0  0  0  0
   -3.8250    1.0233   -1.4358 H   0  0  0  0  0  0  0  0  0  0  0  0
   -2.0127    0.0607    2.3568 H   0  0  0  0  0  0  0  0  0  0  0  0
    5.3644   -1.0465    1.4088 H   0  0  0  0  0  0  0  0  0  0  0  0
   -4.3333   -1.3524   -1.7975 H   0  0  0  0  0  0  0  0  0  0  0  0
   -2.5191   -2.3145    1.9984 H   0  0  0  0  0  0  0  0  0  0  0  0
    1.2417   -2.9262   -1.6091 H   0  0  0  0  0  0  0  0  0  0  0  0
    4.6911   -3.6585    0.3319 H   0  0  0  0  0  0  0  0  0  0  0  0
   -4.2238   -5.5704   -0.4649 H   0  0  0  0  0  0  0  0  0  0  0  0
  1  7  1  0  0  0  0
  1  9  1  0  0  0  0
  1 10  1  0  0  0  0
  2  5  1  0  0  0  0
  2 11  1  0  0  0  0
  2 37  1  0  0  0  0
  3  4  1  0  0  0  0
  3 18  1  0  0  0  0
  3 46  1  0  0  0  0
  4 22  2  0  0  0  0
  5  6  1  0  0  0  0
  5  7  1  0  0  0  0
  5 26  1  0  0  0  0
  6  8  1  0  0  0  0
  6 27  1  0  0  0  0
  6 28  1  0  0  0  0
  7 29  1  0  0  0  0
  7 30  1  0  0  0  0
  8  9  1  0  0  0  0
  8 31  1  0  0  0  0
  8 32  1  0  0  0  0
  9 33  1  0  0  0  0
  9 34  1  0  0  0  0
 10 12  1  0  0  0  0
 10 35  1  0  0  0  0
 10 36  1  0  0  0  0
 11 13  2  0  0  0  0
 11 14  1  0  0  0  0
 12 15  2  0  0  0  0
 12 16  1  0  0  0  0
 13 17  1  0  0  0  0
 13 38  1  0  0  0  0
 14 19  2  0  0  0  0
 14 39  1  0  0  0  0
 15 20  1  0  0  0  0
 15 40  1  0  0  0  0
 16 21  2  0  0  0  0
 16 41  1  0  0  0  0
 17 18  2  0  0  0  0
 17 22  1  0  0  0  0
 18 19  1  0  0  0  0
 19 42  1  0  0  0  0
 20 23  2  0  0  0  0
 20 43  1  0  0  0  0
 21 23  1  0  0  0  0
 21 44  1  0  0  0  0
 22 45  1  0  0  0  0
 23 24  1  0  0  0  0
 24 25  3  0  0  0  0
 25 47  1  0  0  0  0
M  END
> <PUBCHEM_COMPOUND_CID>
57446042

> <PUBCHEM_CONFORMER_RMSD>
0.8

> <PUBCHEM_CONFORMER_DIVERSEORDER>
1
10
44
42
128
129
143
55
89
70
96
85
113
136
103
37
101
72
53
114
121
73
58
124
92
131
40
86
120
157
93
144
126
23
84
88
35
141
147
27
68
80
145
12
148
90
138
56
142
116
111
9
152
135
117
54
36
75
48
112
156
134
110
64
149
95
119
32
47
81
98
79
137
38
45
51
43
122
5
123
71
8
130
91
15
62
105
7
133
49
60
87
97
83
33
18
125
29
140
28
127
26
14
63
50
41
13
155
57
153
102
146
52
39
16
76
107
34
154
109
151
104
69
2
17
66
77
115
31
61
59
3
99
139
6
21
65
94
24
4
78
46
25
132
20
150
11
82
22
118
30
106
108
100
19
74
67

> <PUBCHEM_MMFF94_PARTIAL_CHARGES>
33
1 -0.81
10 0.41
11 0.1
12 -0.14
13 -0.15
14 -0.15
15 -0.15
16 -0.15
18 -0.15
19 -0.15
2 -0.87
20 -0.15
21 -0.15
22 0.14
23 0.07
24 -0.07
25 -0.18
3 0.3
37 0.4
38 0.15
39 0.15
4 -0.71
40 0.15
41 0.15
42 0.15
43 0.15
44 0.15
45 0.15
46 0.27
47 0.18
5 0.37
7 0.27
9 0.27

> <PUBCHEM_EFFECTIVE_ROTOR_COUNT>
5.2

> <PUBCHEM_PHARMACOPHORE_FEATURES>
10
1 1 cation
1 2 cation
1 2 donor
1 25 hydrophobe
1 3 donor
1 4 acceptor
5 3 4 17 18 22 rings
6 1 5 6 7 8 9 rings
6 11 13 14 17 18 19 rings
6 12 15 16 20 21 23 rings

> <PUBCHEM_HEAVY_ATOM_COUNT>
25

> <PUBCHEM_ATOM_DEF_STEREO_COUNT>
0

> <PUBCHEM_ATOM_UDEF_STEREO_COUNT>
1

> <PUBCHEM_BOND_DEF_STEREO_COUNT>
0

> <PUBCHEM_BOND_UDEF_STEREO_COUNT>
0

> <PUBCHEM_ISOTOPIC_ATOM_COUNT>
0

> <PUBCHEM_COMPONENT_COUNT>
1

> <PUBCHEM_CACTVS_TAUTO_COUNT>
2

> <PUBCHEM_CONFORMER_ID>
036C8E9A00000001

> <PUBCHEM_MMFF94_ENERGY>
57.3733

> <PUBCHEM_FEATURE_SELFOVERLAP>
50.837

> <PUBCHEM_SHAPE_FINGERPRINT>
10764073 3 17754211655293728065
107951 10 16595932066440628377
10940486 97 17829625967835917990
11014199 57 18411423933520717847
11552529 35 17988357062120748592
12156800 1 10723027106346016855
12422481 6 17981635696665536113
12553582 1 18336845137750439561
13122387 1 16177361063415497127
1361 2 17113535373299407699
138480 1 15023302590855176533
14251757 5 17834701304450837950
14659021 117 18193262010550266514
14725015 67 17835517124988039671
14863182 85 17690560110195179529
15110567 62 17403179687018106331
16719943 64 17184192743004962254
17138139 8 16116544447174529695
19930381 70 18122062267663393859
20028762 73 17695356154398494292
20775438 99 17835474454751984685
20775530 9 18412829074994637363
21133410 52 17836914974151367814
21344244 181 17975954502694185429
22113638 7 17981035637508555910
23559900 14 18266730467159141849
4280585 95 18262784238085285648
463206 1 18410577270954413707
5265222 85 17256554927997032916
5309563 4 18195809798061535611
5312544 6 17474103679819396471
550186 72 18407760323056686532
56633871 153 18412273826566482995
613672 6 18338218440853573575
9709674 26 18195523684641497088

> <PUBCHEM_SHAPE_MULTIPOLES>
494.56
8.85
6.81
1.08
2.03
2.16
-0.12
-10
-0.83
0.17
2.19
0.2
0.01
-0.16

> <PUBCHEM_SHAPE_SELFOVERLAP>
1074.479

> <PUBCHEM_SHAPE_VOLUME>
268.4

> <PUBCHEM_COORDINATE_TYPE>
2
5
10

$$$$
57446043
  -OEChem-05102415113D

 50 53  0     1  0  0  0  0  0999 V2000
   -1.9004    2.3012   -0.0989 N   0  0  2  0  0  0  0  0  0  0  0  0
    1.8170    2.4458    0.2879 N   0  0  0  0  0  0  0  0  0  0  0  0
    4.3281   -2.4160    0.0217 N   0  0  0  0  0  0  0  0  0  0  0  0
    3.4942   -3.1735   -0.7102 N   0  0  0  0  0  0  0  0  0  0  0  0
   -1.8940   -4.6022   -0.4997 N   0  0  0  0  0  0  0  0  0  0  0  0
    0.5387    2.6503   -0.3614 C   0  0  2  0  0  0  0  0  0  0  0  0
    0.3134    4.1450   -0.5924 C   0  0  0  0  0  0  0  0  0  0  0  0
   -0.5814    2.0547    0.5019 C   0  0  0  0  0  0  0  0  0  0  0  0
   -1.0890    4.3944   -1.1365 C   0  0  0  0  0  0  0  0  0  0  0  0
   -2.1525    3.7404   -0.2535 C   0  0  0  0  0  0  0  0  0  0  0  0
   -2.9533    1.6810    0.7051 C   0  0  0  0  0  0  0  0  0  0  0  0
   -3.0156    0.1915    0.4947 C   0  0  0  0  0  0  0  0  0  0  0  0
    2.5052    1.2462    0.2609 C   0  0  0  0  0  0  0  0  0  0  0  0
    1.9576    0.1546   -0.4249 C   0  0  0  0  0  0  0  0  0  0  0  0
   -3.5908   -0.3250   -0.6665 C   0  0  0  0  0  0  0  0  0  0  0  0
   -2.4976   -0.6720    1.4599 C   0  0  0  0  0  0  0  0  0  0  0  0
    3.7334    1.1398    0.9160 C   0  0  0  0  0  0  0  0  0  0  0  0
    2.6721   -1.0549   -0.4407 C   0  0  0  0  0  0  0  0  0  0  0  0
    3.8929   -1.1335    0.2199 C   0  0  0  0  0  0  0  0  0  0  0  0
    4.4565   -0.0575    0.9092 C   0  0  0  0  0  0  0  0  0  0  0  0
   -3.6482   -1.7047   -0.8623 C   0  0  0  0  0  0  0  0  0  0  0  0
   -2.5550   -2.0518    1.2642 C   0  0  0  0  0  0  0  0  0  0  0  0
   -3.1303   -2.5682    0.1032 C   0  0  0  0  0  0  0  0  0  0  0  0
    2.4879   -2.3421   -0.9897 C   0  0  0  0  0  0  0  0  0  0  0  0
   -3.1889   -4.0433   -0.1077 C   0  0  0  0  0  0  0  0  0  0  0  0
    0.5314    2.1909   -1.3587 H   0  0  0  0  0  0  0  0  0  0  0  0
    1.0617    4.5413   -1.2893 H   0  0  0  0  0  0  0  0  0  0  0  0
    0.4392    4.6977    0.3481 H   0  0  0  0  0  0  0  0  0  0  0  0
   -0.4159    0.9804    0.6170 H   0  0  0  0  0  0  0  0  0  0  0  0
   -0.5342    2.4820    1.5141 H   0  0  0  0  0  0  0  0  0  0  0  0
   -1.2736    5.4727   -1.2006 H   0  0  0  0  0  0  0  0  0  0  0  0
   -1.1620    3.9965   -2.1566 H   0  0  0  0  0  0  0  0  0  0  0  0
   -3.1283    3.9001   -0.7283 H   0  0  0  0  0  0  0  0  0  0  0  0
   -2.1793    4.2392    0.7243 H   0  0  0  0  0  0  0  0  0  0  0  0
   -3.9374    2.0771    0.4168 H   0  0  0  0  0  0  0  0  0  0  0  0
   -2.8481    1.9244    1.7713 H   0  0  0  0  0  0  0  0  0  0  0  0
    2.1976    3.1960    0.8546 H   0  0  0  0  0  0  0  0  0  0  0  0
    1.0144    0.1844   -0.9558 H   0  0  0  0  0  0  0  0  0  0  0  0
   -3.9970    0.3376   -1.4263 H   0  0  0  0  0  0  0  0  0  0  0  0
   -2.0465   -0.2831    2.3689 H   0  0  0  0  0  0  0  0  0  0  0  0
    4.1490    1.9949    1.4455 H   0  0  0  0  0  0  0  0  0  0  0  0
    5.4106   -0.1421    1.4174 H   0  0  0  0  0  0  0  0  0  0  0  0
   -4.0971   -2.0925   -1.7729 H   0  0  0  0  0  0  0  0  0  0  0  0
   -2.1482   -2.7140    2.0240 H   0  0  0  0  0  0  0  0  0  0  0  0
    1.6604   -2.7075   -1.5814 H   0  0  0  0  0  0  0  0  0  0  0  0
    5.1847   -2.8373    0.3587 H   0  0  0  0  0  0  0  0  0  0  0  0
   -3.5373   -4.5345    0.8089 H   0  0  0  0  0  0  0  0  0  0  0  0
   -3.9251   -4.2899   -0.8818 H   0  0  0  0  0  0  0  0  0  0  0  0
   -1.9922   -5.6074   -0.6380 H   0  0  0  0  0  0  0  0  0  0  0  0
   -1.2272   -4.4888    0.2632 H   0  0  0  0  0  0  0  0  0  0  0  0
  1  8  1  0  0  0  0
  1 10  1  0  0  0  0
  1 11  1  0  0  0  0
  2  6  1  0  0  0  0
  2 13  1  0  0  0  0
  2 37  1  0  0  0  0
  3  4  1  0  0  0  0
  3 19  1  0  0  0  0
  3 46  1  0  0  0  0
  4 24  2  0  0  0  0
  5 25  1  0  0  0  0
  5 49  1  0  0  0  0
  5 50  1  0  0  0  0
  6  7  1  0  0  0  0
  6  8  1  0  0  0  0
  6 26  1  0  0  0  0
  7  9  1  0  0  0  0
  7 27  1  0  0  0  0
  7 28  1  0  0  0  0
  8 29  1  0  0  0  0
  8 30  1  0  0  0  0
  9 10  1  0  0  0  0
  9 31  1  0  0  0  0
  9 32  1  0  0  0  0
 10 33  1  0  0  0  0
 10 34  1  0  0  0  0
 11 12  1  0  0  0  0
 11 35  1  0  0  0  0
 11 36  1  0  0  0  0
 12 15  2  0  0  0  0
 12 16  1  0  0  0  0
 13 14  2  0  0  0  0
 13 17  1  0  0  0  0
 14 18  1  0  0  0  0
 14 38  1  0  0  0  0
 15 21  1  0  0  0  0
 15 39  1  0  0  0  0
 16 22  2  0  0  0  0
 16 40  1  0  0  0  0
 17 20  2  0  0  0  0
 17 41  1  0  0  0  0
 18 19  2  0  0  0  0
 18 24  1  0  0  0  0
 19 20  1  0  0  0  0
 20 42  1  0  0  0  0
 21 23  2  0  0  0  0
 21 43  1  0  0  0  0
 22 23  1  0  0  0  0
 22 44  1  0  0  0  0
 23 25  1  0  0  0  0
 24 45  1  0  0  0  0
 25 47  1  0  0  0  0
 25 48  1  0  0  0  0
M  END
> <PUBCHEM_COMPOUND_CID>
57446043

> <PUBCHEM_CONFORMER_RMSD>
0.8

> <PUBCHEM_CONFORMER_DIVERSEORDER>
1
108
184
205
197
65
140
180
218
117
35
112
129
3
161
156
10
207
222
20
139
126
185
123
142
144
12
30
45
132
107
99
60
137
33
21
26
146
89
221
52
82
18
6
209
93
149
114
192
216
165
32
174
56
141
110
152
187
203
124
111
36
17
211
159
76
178
143
128
71
162
41
27
172
147
104
145
101
166
214
125
195
34
91
219
204
120
54
50
37
29
100
77
177
102
63
190
127
210
164
170
169
113
31
171
133
196
49
97
191
213
7
80
154
98
181
24
48
215
179
193
72
151
40
176
22
61
200
57
55
109
19
106
224
13
47
158
23
194
84
183
173
79
14
136
42
90
168
148
15
157
116
16
212
5
182
199
189
75
135
74
58
86
130
67
188
134
2
81
28
43
69
160
138
167
119
88
25
62
223
118
202
78
38
121
66
208
92
46
85
131
87
201
217
122
115
53
103
70
73
220
198
8
163
175
44
9
186
11
4
155
68
105
95
150
206
96
94
83
59
51
64
153
39

> <PUBCHEM_MMFF94_PARTIAL_CHARGES>
34
1 -0.81
10 0.27
11 0.41
12 -0.14
13 0.1
14 -0.15
15 -0.15
16 -0.15
17 -0.15
19 -0.15
2 -0.87
20 -0.15
21 -0.15
22 -0.15
23 -0.14
24 0.14
25 0.41
3 0.3
37 0.4
38 0.15
39 0.15
4 -0.71
40 0.15
41 0.15
42 0.15
43 0.15
44 0.15
45 0.15
46 0.27
49 0.36
5 -0.99
50 0.36
6 0.37
8 0.27

> <PUBCHEM_EFFECTIVE_ROTOR_COUNT>
6.2

> <PUBCHEM_PHARMACOPHORE_FEATURES>
11
1 1 cation
1 2 cation
1 2 donor
1 3 donor
1 4 acceptor
1 5 cation
1 5 donor
5 3 4 18 19 24 rings
6 1 6 7 8 9 10 rings
6 12 15 16 21 22 23 rings
6 13 14 17 18 19 20 rings

> <PUBCHEM_HEAVY_ATOM_COUNT>
25

> <PUBCHEM_ATOM_DEF_STEREO_COUNT>
0

> <PUBCHEM_ATOM_UDEF_STEREO_COUNT>
1

> <PUBCHEM_BOND_DEF_STEREO_COUNT>
0

> <PUBCHEM_BOND_UDEF_STEREO_COUNT>
0

> <PUBCHEM_ISOTOPIC_ATOM_COUNT>
0

> <PUBCHEM_COMPONENT_COUNT>
1

> <PUBCHEM_CACTVS_TAUTO_COUNT>
2

> <PUBCHEM_CONFORMER_ID>
036C8E9B00000001

> <PUBCHEM_MMFF94_ENERGY>
58.48

> <PUBCHEM_FEATURE_SELFOVERLAP>
55.913

> <PUBCHEM_SHAPE_FINGERPRINT>
10764073 3 17825139007244083889
107951 10 16811539734005993537
10940486 97 18045233639622631228
1100329 8 14592932832070148196
11014199 57 18338803432447425503
11552529 35 18060417997564137512
12038231 1 18411703170724736071
12422481 6 18052850008292473217
12553582 1 18264506116091159041
13122387 1 16681764255998585015
13402501 40 17980767034458978716
1361 2 16536793201817061539
138480 1 15599762278064713381
14117953 113 18341898553827805391
14251757 5 18050029713226766886
14659021 117 18336814295938219546
14725015 67 18195243313450535935
15110567 62 16826437524120549995
15927050 60 17330831323784598853
16719943 64 17543916706821572650
19141452 34 18341052917685520009
19930381 70 17905606962553399915
20775530 9 18341054098373602347
21133410 52 17404567262471423822
21344244 181 18121475991980251413
22113638 7 17837203049622348502
23559900 14 18122615326322703505
3027735 51 17979909420211749573
3298306 158 17111285217983306989
463206 1 17619348045068019379
469060 322 17554284315576446212
5265222 85 17615714850791121508
5309563 4 18050852422696631267
550186 72 18335701676625293964
56633871 153 18340217357810064563
613672 6 18265880518568822667
9709674 26 18339638919888205160

> <PUBCHEM_SHAPE_MULTIPOLES>
489.58
8.47
6.58
1.08
3.64
1.66
0.13
-7.5
0.91
-2.89
-2.16
-0.23
-0.05
0.53

> <PUBCHEM_SHAPE_SELFOVERLAP>
1059.054

> <PUBCHEM_SHAPE_VOLUME>
266.6

> <PUBCHEM_COORDINATE_TYPE>
2
5
10

$$$$
57446044
  -OEChem-05102415113D

 50 53  0     1  0  0  0  0  0999 V2000
   -5.3297   -2.4549   -0.7815 O   0  0  0  0  0  0  0  0  0  0  0  0
   -0.6249    2.9668   -0.0761 N   0  0  2  0  0  0  0  0  0  0  0  0
    2.8546    1.6439    0.2888 N   0  0  0  0  0  0  0  0  0  0  0  0
    3.2665   -3.8094   -0.0363 N   0  0  0  0  0  0  0  0  0  0  0  0
    2.2013   -4.1732   -0.7696 N   0  0  0  0  0  0  0  0  0  0  0  0
    1.7562    2.3383   -0.3507 C   0  0  2  0  0  0  0  0  0  0  0  0
    2.1320    3.8046   -0.5670 C   0  0  0  0  0  0  0  0  0  0  0  0
    0.4944    2.2183    0.5142 C   0  0  0  0  0  0  0  0  0  0  0  0
    0.9373    4.5876   -1.1001 C   0  0  0  0  0  0  0  0  0  0  0  0
   -0.2952    4.3917   -0.2163 C   0  0  0  0  0  0  0  0  0  0  0  0
   -1.8346    2.7986    0.7290 C   0  0  0  0  0  0  0  0  0  0  0  0
   -2.4742    1.4540    0.5057 C   0  0  0  0  0  0  0  0  0  0  0  0
    3.0194    0.2712    0.2468 C   0  0  0  0  0  0  0  0  0  0  0  0
    2.0874   -0.5125   -0.4452 C   0  0  0  0  0  0  0  0  0  0  0  0
    4.1100   -0.3134    0.8933 C   0  0  0  0  0  0  0  0  0  0  0  0
   -2.3325    0.4476    1.4611 C   0  0  0  0  0  0  0  0  0  0  0  0
   -3.2081    1.2147   -0.6561 C   0  0  0  0  0  0  0  0  0  0  0  0
    2.2726   -1.9048   -0.4762 C   0  0  0  0  0  0  0  0  0  0  0  0
    3.3674   -2.4609    0.1760 C   0  0  0  0  0  0  0  0  0  0  0  0
    4.3080   -1.6979    0.8714 C   0  0  0  0  0  0  0  0  0  0  0  0
   -2.9249   -0.7982    1.2546 C   0  0  0  0  0  0  0  0  0  0  0  0
   -3.8004   -0.0312   -0.8625 C   0  0  0  0  0  0  0  0  0  0  0  0
   -3.6590   -1.0377    0.0928 C   0  0  0  0  0  0  0  0  0  0  0  0
    1.5990   -3.0119   -1.0354 C   0  0  0  0  0  0  0  0  0  0  0  0
   -4.2775   -2.3361   -0.1224 C   0  0  0  0  0  0  0  0  0  0  0  0
   -3.6451   -3.5951    0.4615 C   0  0  0  0  0  0  0  0  0  0  0  0
    1.5678    1.9288   -1.3520 H   0  0  0  0  0  0  0  0  0  0  0  0
    2.9741    3.8846   -1.2650 H   0  0  0  0  0  0  0  0  0  0  0  0
    2.4659    4.2543    0.3775 H   0  0  0  0  0  0  0  0  0  0  0  0
    0.2273    1.1635    0.6188 H   0  0  0  0  0  0  0  0  0  0  0  0
    0.7070    2.5825    1.5299 H   0  0  0  0  0  0  0  0  0  0  0  0
    1.1884    5.6530   -1.1535 H   0  0  0  0  0  0  0  0  0  0  0  0
    0.7123    4.2607   -2.1233 H   0  0  0  0  0  0  0  0  0  0  0  0
   -1.1322    4.9249   -0.6836 H   0  0  0  0  0  0  0  0  0  0  0  0
   -0.1228    4.8509    0.7661 H   0  0  0  0  0  0  0  0  0  0  0  0
   -2.5865    3.5505    0.4502 H   0  0  0  0  0  0  0  0  0  0  0  0
   -1.6403    2.9704    1.7966 H   0  0  0  0  0  0  0  0  0  0  0  0
    3.4992    2.1799    0.8597 H   0  0  0  0  0  0  0  0  0  0  0  0
    1.2295   -0.1111   -0.9699 H   0  0  0  0  0  0  0  0  0  0  0  0
    4.8278    0.3058    1.4278 H   0  0  0  0  0  0  0  0  0  0  0  0
   -1.7655    0.6215    2.3718 H   0  0  0  0  0  0  0  0  0  0  0  0
   -3.3246    1.9905   -1.4082 H   0  0  0  0  0  0  0  0  0  0  0  0
    5.1544   -2.1538    1.3728 H   0  0  0  0  0  0  0  0  0  0  0  0
   -2.8089   -1.5598    2.0208 H   0  0  0  0  0  0  0  0  0  0  0  0
   -4.3652   -0.2005   -1.7756 H   0  0  0  0  0  0  0  0  0  0  0  0
    0.6933   -3.0187   -1.6252 H   0  0  0  0  0  0  0  0  0  0  0  0
    3.8913   -4.5353    0.2917 H   0  0  0  0  0  0  0  0  0  0  0  0
   -4.0381   -3.7698    1.4660 H   0  0  0  0  0  0  0  0  0  0  0  0
   -2.5557   -3.5052    0.4891 H   0  0  0  0  0  0  0  0  0  0  0  0
   -3.8884   -4.4472   -0.1803 H   0  0  0  0  0  0  0  0  0  0  0  0
  1 25  2  0  0  0  0
  2  8  1  0  0  0  0
  2 10  1  0  0  0  0
  2 11  1  0  0  0  0
  3  6  1  0  0  0  0
  3 13  1  0  0  0  0
  3 38  1  0  0  0  0
  4  5  1  0  0  0  0
  4 19  1  0  0  0  0
  4 47  1  0  0  0  0
  5 24  2  0  0  0  0
  6  7  1  0  0  0  0
  6  8  1  0  0  0  0
  6 27  1  0  0  0  0
  7  9  1  0  0  0  0
  7 28  1  0  0  0  0
  7 29  1  0  0  0  0
  8 30  1  0  0  0  0
  8 31  1  0  0  0  0
  9 10  1  0  0  0  0
  9 32  1  0  0  0  0
  9 33  1  0  0  0  0
 10 34  1  0  0  0  0
 10 35  1  0  0  0  0
 11 12  1  0  0  0  0
 11 36  1  0  0  0  0
 11 37  1  0  0  0  0
 12 16  2  0  0  0  0
 12 17  1  0  0  0  0
 13 14  2  0  0  0  0
 13 15  1  0  0  0  0
 14 18  1  0  0  0  0
 14 39  1  0  0  0  0
 15 20  2  0  0  0  0
 15 40  1  0  0  0  0
 16 21  1  0  0  0  0
 16 41  1  0  0  0  0
 17 22  2  0  0  0  0
 17 42  1  0  0  0  0
 18 19  2  0  0  0  0
 18 24  1  0  0  0  0
 19 20  1  0  0  0  0
 20 43  1  0  0  0  0
 21 23  2  0  0  0  0
 21 44  1  0  0  0  0
 22 23  1  0  0  0  0
 22 45  1  0  0  0  0
 23 25  1  0  0  0  0
 24 46  1  0  0  0  0
 25 26  1  0  0  0  0
 26 48  1  0  0  0  0
 26 49  1  0  0  0  0
 26 50  1  0  0  0  0
M  END
> <PUBCHEM_COMPOUND_CID>
57446044

> <PUBCHEM_CONFORMER_RMSD>
0.8

> <PUBCHEM_CONFORMER_DIVERSEORDER>
1
288
199
91
180
62
122
190
240
53
35
212
264
71
249
285
278
239
224
187
6
92
125
204
112
266
302
292
110
195
115
32
13
246
238
133
128
241
116
105
192
129
307
305
245
281
184
244
87
124
217
121
271
108
94
61
161
234
59
131
33
267
102
63
171
31
80
300
8
193
70
72
301
277
251
76
43
289
42
208
196
38
306
229
242
155
106
169
182
221
230
162
41
154
146
258
205
141
293
183
261
260
127
255
283
269
95
118
210
220
77
213
130
82
270
227
206
231
150
45
30
11
286
173
68
174
299
279
58
37
303
296
215
282
223
109
185
280
191
89
157
294
252
104
85
179
222
113
201
56
263
243
144
274
64
228
49
257
158
34
248
96
88
194
136
2
168
48
291
262
176
23
203
60
298
197
232
304
235
308
123
290
119
172
17
151
4
177
188
7
47
218
287
5
309
55
163
273
175
65
295
166
90
247
99
149
18
198
164
51
78
50
250
156
69
54
98
170
21
160
97
73
152
236
209
74
216
284
40
135
159
100
46
202
107
103
142
165
275
19
225
145
79
259
28
138
153
226
75
186
120
297
147
200
143
22
253
219
57
276
254
12
20
3
27
29
14
117
272
181
114
66
137
139
140
211
148
25
67
265
81
207
233
86
16
101
39
15
214
83
24
189
93
256
84
167
134
268
132
237
9
10
178
52
126
111
44
26
36

> <PUBCHEM_MMFF94_PARTIAL_CHARGES>
33
1 -0.57
10 0.27
11 0.41
12 -0.14
13 0.1
14 -0.15
15 -0.15
16 -0.15
17 -0.15
19 -0.15
2 -0.81
20 -0.15
21 -0.15
22 -0.15
23 0.09
24 0.14
25 0.42
26 0.06
3 -0.87
38 0.4
39 0.15
4 0.3
40 0.15
41 0.15
42 0.15
43 0.15
44 0.15
45 0.15
46 0.15
47 0.27
5 -0.71
6 0.37
8 0.27

> <PUBCHEM_EFFECTIVE_ROTOR_COUNT>
6.2

> <PUBCHEM_PHARMACOPHORE_FEATURES>
10
1 1 acceptor
1 2 cation
1 3 cation
1 3 donor
1 4 donor
1 5 acceptor
5 4 5 18 19 24 rings
6 12 16 17 21 22 23 rings
6 13 14 15 18 19 20 rings
6 2 6 7 8 9 10 rings

> <PUBCHEM_HEAVY_ATOM_COUNT>
26

> <PUBCHEM_ATOM_DEF_STEREO_COUNT>
0

> <PUBCHEM_ATOM_UDEF_STEREO_COUNT>
1

> <PUBCHEM_BOND_DEF_STEREO_COUNT>
0

> <PUBCHEM_BOND_UDEF_STEREO_COUNT>
0

> <PUBCHEM_ISOTOPIC_ATOM_COUNT>
0

> <PUBCHEM_COMPONENT_COUNT>
1

> <PUBCHEM_CACTVS_TAUTO_COUNT>
4

> <PUBCHEM_CONFORMER_ID>
036C8E9C00000001

> <PUBCHEM_MMFF94_ENERGY>
66.2114

> <PUBCHEM_FEATURE_SELFOVERLAP>
50.837

> <PUBCHEM_SHAPE_FINGERPRINT>
10940486 97 17541960684847712582
11014199 57 18339366270720959255
11552529 35 17986951839163484336
12107183 9 18340782455611371313
12553582 1 18265634111984305104
12717326 68 18120625012687569106
13122387 1 18412549786124910915
1361 2 17545599419595057099
138480 1 18410294743589603853
14251757 5 17403201208814669966
14659021 117 17976246951042811298
14675020 138 17624124306546669025
15110567 62 17763188342557179491
16719943 64 16607734138100732246
17138139 8 16693010645480491119
19930381 70 18338234989621034411
20028762 73 18055923336285884684
20775438 99 17906406097259228789
20775530 9 18408327670227436707
21133410 171 17395803819311780259
21133410 52 18124861616163262094
21133410 62 16895935437762246543
22113638 7 18197207255665142518
23559900 14 18338226180669360713
3027735 51 17330546549992858317
3882209 13 17977063986787538023
4280585 95 18262786381379409440
445580 102 18265899253416920323
463206 1 18408608028475610441
5265222 85 16824491891107959542
5309563 4 18340205297114460031
56633871 153 18269001890810206761
57527585 103 17823726138274841963
613672 6 18337938013774919623
6433294 58 18049724315229358923
9709674 26 17979351954873718176

> <PUBCHEM_SHAPE_MULTIPOLES>
509.27
9.03
6.91
1.08
5.08
2.37
-0.1
-9.06
-0.44
-2.7
1.81
0.23
-0.01
-0.38

> <PUBCHEM_SHAPE_SELFOVERLAP>
1104.394

> <PUBCHEM_SHAPE_VOLUME>
279.9

> <PUBCHEM_COORDINATE_TYPE>
2
5
10

$$$$
57446045
  -OEChem-05102415113D

 49 52  0     1  0  0  0  0  0999 V2000
   -1.6379    2.4877    0.0971 N   0  0  1  0  0  0  0  0  0  0  0  0
    2.0611    2.2590   -0.3732 N   0  0  0  0  0  0  0  0  0  0  0  0
    4.0950   -2.8130    0.0252 N   0  0  0  0  0  0  0  0  0  0  0  0
    3.2107   -3.4582    0.8041 N   0  0  0  0  0  0  0  0  0  0  0  0
    0.8271    2.6118    0.2954 C   0  0  1  0  0  0  0  0  0  0  0  0
    0.7531    4.1280    0.4752 C   0  0  0  0  0  0  0  0  0  0  0  0
   -0.3632    2.0946   -0.5215 C   0  0  0  0  0  0  0  0  0  0  0  0
   -0.6054    4.5290    1.0398 C   0  0  0  0  0  0  0  0  0  0  0  0
   -1.7477    3.9492    0.2042 C   0  0  0  0  0  0  0  0  0  0  0  0
   -2.7643    1.9443   -0.6616 C   0  0  0  0  0  0  0  0  0  0  0  0
    2.6304    0.9990   -0.3150 C   0  0  0  0  0  0  0  0  0  0  0  0
   -2.9632    0.4757   -0.3956 C   0  0  0  0  0  0  0  0  0  0  0  0
    1.9975   -0.0079    0.4247 C   0  0  0  0  0  0  0  0  0  0  0  0
    3.8249    0.7490   -0.9929 C   0  0  0  0  0  0  0  0  0  0  0  0
   -3.2025    0.0282    0.9036 C   0  0  0  0  0  0  0  0  0  0  0  0
   -2.9086   -0.4371   -1.4489 C   0  0  0  0  0  0  0  0  0  0  0  0
    2.5914   -1.2803    0.4712 C   0  0  0  0  0  0  0  0  0  0  0  0
    3.7813   -1.5021   -0.2130 C   0  0  0  0  0  0  0  0  0  0  0  0
    4.4283   -0.5123   -0.9561 C   0  0  0  0  0  0  0  0  0  0  0  0
   -3.3874   -1.3322    1.1495 C   0  0  0  0  0  0  0  0  0  0  0  0
   -3.0934   -1.7975   -1.2029 C   0  0  0  0  0  0  0  0  0  0  0  0
   -3.3331   -2.2452    0.0963 C   0  0  0  0  0  0  0  0  0  0  0  0
    2.2975   -2.5225    1.0734 C   0  0  0  0  0  0  0  0  0  0  0  0
   -3.5247   -3.6641    0.3531 C   0  0  0  0  0  0  0  0  0  0  0  0
   -2.9667   -4.6832   -0.3320 C   0  0  0  0  0  0  0  0  0  0  0  0
    0.8002    2.1908    1.3091 H   0  0  0  0  0  0  0  0  0  0  0  0
    0.9076    4.6328   -0.4876 H   0  0  0  0  0  0  0  0  0  0  0  0
    1.5530    4.4741    1.1408 H   0  0  0  0  0  0  0  0  0  0  0  0
   -0.3007    2.4816   -1.5491 H   0  0  0  0  0  0  0  0  0  0  0  0
   -0.3112    1.0047   -0.6050 H   0  0  0  0  0  0  0  0  0  0  0  0
   -0.6854    5.6216    1.0680 H   0  0  0  0  0  0  0  0  0  0  0  0
   -0.6905    4.1756    2.0752 H   0  0  0  0  0  0  0  0  0  0  0  0
   -2.6921    4.2179    0.6933 H   0  0  0  0  0  0  0  0  0  0  0  0
   -1.7511    4.4141   -0.7905 H   0  0  0  0  0  0  0  0  0  0  0  0
   -2.6585    2.1473   -1.7358 H   0  0  0  0  0  0  0  0  0  0  0  0
   -3.7005    2.4339   -0.3586 H   0  0  0  0  0  0  0  0  0  0  0  0
    2.4985    2.9469   -0.9768 H   0  0  0  0  0  0  0  0  0  0  0  0
    1.0757    0.1335    0.9748 H   0  0  0  0  0  0  0  0  0  0  0  0
    4.3075    1.5395   -1.5644 H   0  0  0  0  0  0  0  0  0  0  0  0
   -3.2529    0.7281    1.7337 H   0  0  0  0  0  0  0  0  0  0  0  0
   -2.7246   -0.1021   -2.4662 H   0  0  0  0  0  0  0  0  0  0  0  0
    5.3561   -0.7084   -1.4818 H   0  0  0  0  0  0  0  0  0  0  0  0
   -3.5725   -1.6635    2.1685 H   0  0  0  0  0  0  0  0  0  0  0  0
   -3.0579   -2.4804   -2.0478 H   0  0  0  0  0  0  0  0  0  0  0  0
    1.4542   -2.7832    1.6973 H   0  0  0  0  0  0  0  0  0  0  0  0
    4.8978   -3.3280   -0.3142 H   0  0  0  0  0  0  0  0  0  0  0  0
   -4.1616   -3.9136    1.1991 H   0  0  0  0  0  0  0  0  0  0  0  0
   -3.1737   -5.7076   -0.0396 H   0  0  0  0  0  0  0  0  0  0  0  0
   -2.2966   -4.5290   -1.1701 H   0  0  0  0  0  0  0  0  0  0  0  0
  1  7  1  0  0  0  0
  1  9  1  0  0  0  0
  1 10  1  0  0  0  0
  2  5  1  0  0  0  0
  2 11  1  0  0  0  0
  2 37  1  0  0  0  0
  3  4  1  0  0  0  0
  3 18  1  0  0  0  0
  3 46  1  0  0  0  0
  4 23  2  0  0  0  0
  5  6  1  0  0  0  0
  5  7  1  0  0  0  0
  5 26  1  0  0  0  0
  6  8  1  0  0  0  0
  6 27  1  0  0  0  0
  6 28  1  0  0  0  0
  7 29  1  0  0  0  0
  7 30  1  0  0  0  0
  8  9  1  0  0  0  0
  8 31  1  0  0  0  0
  8 32  1  0  0  0  0
  9 33  1  0  0  0  0
  9 34  1  0  0  0  0
 10 12  1  0  0  0  0
 10 35  1  0  0  0  0
 10 36  1  0  0  0  0
 11 13  2  0  0  0  0
 11 14  1  0  0  0  0
 12 15  2  0  0  0  0
 12 16  1  0  0  0  0
 13 17  1  0  0  0  0
 13 38  1  0  0  0  0
 14 19  2  0  0  0  0
 14 39  1  0  0  0  0
 15 20  1  0  0  0  0
 15 40  1  0  0  0  0
 16 21  2  0  0  0  0
 16 41  1  0  0  0  0
 17 18  2  0  0  0  0
 17 23  1  0  0  0  0
 18 19  1  0  0  0  0
 19 42  1  0  0  0  0
 20 22  2  0  0  0  0
 20 43  1  0  0  0  0
 21 22  1  0  0  0  0
 21 44  1  0  0  0  0
 22 24  1  0  0  0  0
 23 45  1  0  0  0  0
 24 25  2  0  0  0  0
 24 47  1  0  0  0  0
 25 48  1  0  0  0  0
 25 49  1  0  0  0  0
M  END
> <PUBCHEM_COMPOUND_CID>
57446045

> <PUBCHEM_CONFORMER_RMSD>
0.8

> <PUBCHEM_CONFORMER_DIVERSEORDER>
2
6
30
29
82
107
139
135
177
58
43
48
134
106
109
50
17
125
138
171
129
53
165
119
55
148
161
66
108
99
127
10
169
78
172
173
181
140
76
74
32
60
8
150
91
69
67
86
145
122
77
152
57
158
63
90
16
27
143
131
92
132
124
13
174
142
23
46
117
40
159
162
93
20
49
51
146
157
175
112
39
95
115
61
36
121
130
156
137
65
154
31
100
87
21
64
73
37
147
111
33
149
84
101
167
116
22
163
176
81
102
94
164
151
80
5
170
24
123
85
7
120
18
155
52
136
104
160
88
62
178
42
141
89
19
59
179
83
128
14
113
4
34
68
56
126
96
103
15
9
71
1
47
75
153
118
3
28
168
35
54
38
25
44
105
41
97
133
144
98
79
110
70
45
11
114
26
12
72
180
166

> <PUBCHEM_MMFF94_PARTIAL_CHARGES>
35
1 -0.81
10 0.41
11 0.1
12 -0.14
13 -0.15
14 -0.15
15 -0.15
16 -0.15
18 -0.15
19 -0.15
2 -0.87
20 -0.15
21 -0.15
22 0.03
23 0.14
24 -0.18
25 -0.3
3 0.3
37 0.4
38 0.15
39 0.15
4 -0.71
40 0.15
41 0.15
42 0.15
43 0.15
44 0.15
45 0.15
46 0.27
47 0.15
48 0.15
49 0.15
5 0.37
7 0.27
9 0.27

> <PUBCHEM_EFFECTIVE_ROTOR_COUNT>
6.2

> <PUBCHEM_PHARMACOPHORE_FEATURES>
10
1 1 cation
1 2 cation
1 2 donor
1 25 hydrophobe
1 3 donor
1 4 acceptor
5 3 4 17 18 23 rings
6 1 5 6 7 8 9 rings
6 11 13 14 17 18 19 rings
6 12 15 16 20 21 22 rings

> <PUBCHEM_HEAVY_ATOM_COUNT>
25

> <PUBCHEM_ATOM_DEF_STEREO_COUNT>
0

> <PUBCHEM_ATOM_UDEF_STEREO_COUNT>
1

> <PUBCHEM_BOND_DEF_STEREO_COUNT>
0

> <PUBCHEM_BOND_UDEF_STEREO_COUNT>
0

> <PUBCHEM_ISOTOPIC_ATOM_COUNT>
0

> <PUBCHEM_COMPONENT_COUNT>
1

> <PUBCHEM_CACTVS_TAUTO_COUNT>
2

> <PUBCHEM_CONFORMER_ID>
036C8E9D00000002

> <PUBCHEM_MMFF94_ENERGY>
64.0112

> <PUBCHEM_FEATURE_SELFOVERLAP>
50.837

> <PUBCHEM_SHAPE_FINGERPRINT>
10616163 171 18195249901834798876
11014199 57 18411138056187029458
114674 6 17761209216904849995
12156800 1 10677793236618291217
12218070 45 17685753746097946570
12553582 1 18411980260544482161
12788726 201 18127408943332347861
13122387 1 16392390370589921819
13533116 47 17909272717683724883
1361 2 17185312587461494443
13631057 29 18410860954066950212
138480 1 15312380707678055593
14251757 5 18265337217926958133
14279260 333 17535759486438759234
14659021 117 18194380231092325506
14863182 85 17326616302661271349
14916288 52 18410008823479977847
152267 14 18411693292527035974
15721738 15 18047153511305440495
16719943 64 17617938032773742514
17809404 112 18122592137414308171
17859628 97 17617376178221532977
19930381 70 17905325483271062163
20291156 8 18411140242251088357
20775438 99 17620424351440643999
20775530 9 18340485681175057611
21133410 38 16469264482962766779
229767 44 17110423209526228666
23379529 103 18198075694264199278
23728640 28 17908421355669455033
3117164 225 18196672889621000747
3729539 64 18262780884385805735
3737641 26 18337407035600111298
463206 1 18336273447617757403
5265222 85 17474684849583009692
5309563 4 18195530522081830423
7097593 13 18269005352559329569
86090 222 17248089147835436475
9795274 37 18334568083523571354

> <PUBCHEM_SHAPE_MULTIPOLES>
494.56
8.55
6.8
1.12
0.41
2.25
-0.07
-9.1
-1.21
-0.9
1.73
-0.3
-0.11
-0.35

> <PUBCHEM_SHAPE_SELFOVERLAP>
1072.037

> <PUBCHEM_SHAPE_VOLUME>
269.6

> <PUBCHEM_COORDINATE_TYPE>
2
5
10

$$$$
25009703
  -OEChem-05102415113D

 46 49  0     1  0  0  0  0  0999 V2000
   -1.4454    2.5901   -0.0943 N   0  0  2  0  0  0  0  0  0  0  0  0
    2.2453    2.1250    0.2962 N   0  0  0  0  0  0  0  0  0  0  0  0
    3.9360   -3.0775   -0.0038 N   0  0  0  0  0  0  0  0  0  0  0  0
    2.9912   -3.6850   -0.7408 N   0  0  0  0  0  0  0  0  0  0  0  0
   -3.9703   -4.5239   -0.3056 N   0  0  0  0  0  0  0  0  0  0  0  0
    1.0185    2.5391   -0.3527 C   0  0  2  0  0  0  0  0  0  0  0  0
    1.0399    4.0520   -0.5737 C   0  0  0  0  0  0  0  0  0  0  0  0
   -0.1852    2.1282    0.5057 C   0  0  0  0  0  0  0  0  0  0  0  0
   -0.3021    4.5300   -1.1170 C   0  0  0  0  0  0  0  0  0  0  0  0
   -1.4595    4.0521   -0.2393 C   0  0  0  0  0  0  0  0  0  0  0  0
   -2.5868    2.1443    0.7047 C   0  0  0  0  0  0  0  0  0  0  0  0
    2.7292    0.8296    0.2614 C   0  0  0  0  0  0  0  0  0  0  0  0
   -2.8905    0.6862    0.4842 C   0  0  0  0  0  0  0  0  0  0  0  0
    2.0128   -0.1542   -0.4319 C   0  0  0  0  0  0  0  0  0  0  0  0
    3.9235    0.5215    0.9153 C   0  0  0  0  0  0  0  0  0  0  0  0
   -3.5403    0.2772   -0.6802 C   0  0  0  0  0  0  0  0  0  0  0  0
   -2.5203   -0.2558    1.4441 C   0  0  0  0  0  0  0  0  0  0  0  0
    2.5222   -1.4632   -0.4563 C   0  0  0  0  0  0  0  0  0  0  0  0
    3.7139   -1.7428    0.2035 C   0  0  0  0  0  0  0  0  0  0  0  0
    4.4434   -0.7769    0.9001 C   0  0  0  0  0  0  0  0  0  0  0  0
   -3.8204   -1.0738   -0.8849 C   0  0  0  0  0  0  0  0  0  0  0  0
   -2.8003   -1.6069    1.2394 C   0  0  0  0  0  0  0  0  0  0  0  0
    2.1328   -2.6999   -1.0140 C   0  0  0  0  0  0  0  0  0  0  0  0
   -3.4503   -2.0158    0.0749 C   0  0  0  0  0  0  0  0  0  0  0  0
   -3.7372   -3.3999   -0.1351 C   0  0  0  0  0  0  0  0  0  0  0  0
    0.9384    2.0935   -1.3530 H   0  0  0  0  0  0  0  0  0  0  0  0
    1.2523    4.5707    0.3706 H   0  0  0  0  0  0  0  0  0  0  0  0
    1.8441    4.3258   -1.2673 H   0  0  0  0  0  0  0  0  0  0  0  0
   -0.1969    1.0405    0.6137 H   0  0  0  0  0  0  0  0  0  0  0  0
   -0.0709    2.5354    1.5209 H   0  0  0  0  0  0  0  0  0  0  0  0
   -0.4370    4.1560   -2.1399 H   0  0  0  0  0  0  0  0  0  0  0  0
   -0.3086    5.6243   -1.1741 H   0  0  0  0  0  0  0  0  0  0  0  0
   -1.4065    4.5422    0.7419 H   0  0  0  0  0  0  0  0  0  0  0  0
   -2.3954    4.3717   -0.7138 H   0  0  0  0  0  0  0  0  0  0  0  0
   -2.4454    2.3605    1.7725 H   0  0  0  0  0  0  0  0  0  0  0  0
   -3.4927    2.6971    0.4182 H   0  0  0  0  0  0  0  0  0  0  0  0
    2.7412    2.7993    0.8690 H   0  0  0  0  0  0  0  0  0  0  0  0
    1.0874    0.0316   -0.9625 H   0  0  0  0  0  0  0  0  0  0  0  0
    4.4716    1.2945    1.4504 H   0  0  0  0  0  0  0  0  0  0  0  0
   -3.8331    1.0017   -1.4356 H   0  0  0  0  0  0  0  0  0  0  0  0
   -2.0130    0.0490    2.3556 H   0  0  0  0  0  0  0  0  0  0  0  0
    5.3709   -1.0182    1.4074 H   0  0  0  0  0  0  0  0  0  0  0  0
   -4.3273   -1.3771   -1.7977 H   0  0  0  0  0  0  0  0  0  0  0  0
   -2.5051   -2.3294    1.9965 H   0  0  0  0  0  0  0  0  0  0  0  0
    1.2578   -2.9224   -1.6082 H   0  0  0  0  0  0  0  0  0  0  0  0
    4.7130   -3.6340    0.3300 H   0  0  0  0  0  0  0  0  0  0  0  0
  1  8  1  0  0  0  0
  1 10  1  0  0  0  0
  1 11  1  0  0  0  0
  2  6  1  0  0  0  0
  2 12  1  0  0  0  0
  2 37  1  0  0  0  0
  3  4  1  0  0  0  0
  3 19  1  0  0  0  0
  3 46  1  0  0  0  0
  4 23  2  0  0  0  0
  5 25  3  0  0  0  0
  6  7  1  0  0  0  0
  6  8  1  0  0  0  0
  6 26  1  0  0  0  0
  7  9  1  0  0  0  0
  7 27  1  0  0  0  0
  7 28  1  0  0  0  0
  8 29  1  0  0  0  0
  8 30  1  0  0  0  0
  9 10  1  0  0  0  0
  9 31  1  0  0  0  0
  9 32  1  0  0  0  0
 10 33  1  0  0  0  0
 10 34  1  0  0  0  0
 11 13  1  0  0  0  0
 11 35  1  0  0  0  0
 11 36  1  0  0  0  0
 12 14  2  0  0  0  0
 12 15  1  0  0  0  0
 13 16  2  0  0  0  0
 13 17  1  0  0  0  0
 14 18  1  0  0  0  0
 14 38  1  0  0  0  0
 15 20  2  0  0  0  0
 15 39  1  0  0  0  0
 16 21  1  0  0  0  0
 16 40  1  0  0  0  0
 17 22  2  0  0  0  0
 17 41  1  0  0  0  0
 18 19  2  0  0  0  0
 18 23  1  0  0  0  0
 19 20  1  0  0  0  0
 20 42  1  0  0  0  0
 21 24  2  0  0  0  0
 21 43  1  0  0  0  0
 22 24  1  0  0  0  0
 22 44  1  0  0  0  0
 23 45  1  0  0  0  0
 24 25  1  0  0  0  0
M  END
> <PUBCHEM_COMPOUND_CID>
25009703

> <PUBCHEM_CONFORMER_RMSD>
0.8

> <PUBCHEM_CONFORMER_DIVERSEORDER>
1
110
71
84
152
81
34
122
72
131
98
150
136
52
38
5
139
86
7
82
118
144
133
21
149
80
146
47
69
107
14
37
40
128
33
119
145
151
57
63
29
10
42
127
115
88
8
67
35
143
73
11
114
142
54
138
60
135
120
125
90
124
32
43
41
79
109
4
13
44
116
117
53
141
94
102
78
70
154
112
45
137
6
83
148
99
121
123
51
140
49
87
36
9
74
95
130
65
59
103
126
31
39
26
2
75
104
85
64
105
77
62
147
111
16
48
108
153
155
12
55
3
50
56
91
58
25
129
15
23
89
19
132
92
134
96
30
101
18
20
27
28
46
93
76
22
24
68
113
106
100
97
61
17
66

> <PUBCHEM_MMFF94_PARTIAL_CHARGES>
32
1 -0.81
10 0.27
11 0.41
12 0.1
13 -0.14
14 -0.15
15 -0.15
16 -0.15
17 -0.15
19 -0.15
2 -0.87
20 -0.15
21 -0.15
22 -0.15
23 0.14
24 0.07
25 0.48
3 0.3
37 0.4
38 0.15
39 0.15
4 -0.71
40 0.15
41 0.15
42 0.15
43 0.15
44 0.15
45 0.15
46 0.27
5 -0.56
6 0.37
8 0.27

> <PUBCHEM_EFFECTIVE_ROTOR_COUNT>
5.2

> <PUBCHEM_PHARMACOPHORE_FEATURES>
10
1 1 cation
1 2 cation
1 2 donor
1 3 donor
1 4 acceptor
1 5 acceptor
5 3 4 18 19 23 rings
6 1 6 7 8 9 10 rings
6 12 14 15 18 19 20 rings
6 13 16 17 21 22 24 rings

> <PUBCHEM_HEAVY_ATOM_COUNT>
25

> <PUBCHEM_ATOM_DEF_STEREO_COUNT>
0

> <PUBCHEM_ATOM_UDEF_STEREO_COUNT>
1

> <PUBCHEM_BOND_DEF_STEREO_COUNT>
0

> <PUBCHEM_BOND_UDEF_STEREO_COUNT>
0

> <PUBCHEM_ISOTOPIC_ATOM_COUNT>
0

> <PUBCHEM_COMPONENT_COUNT>
1

> <PUBCHEM_CACTVS_TAUTO_COUNT>
2

> <PUBCHEM_CONFORMER_ID>
017D9E2700000001

> <PUBCHEM_MMFF94_ENERGY>
57.3189

> <PUBCHEM_FEATURE_SELFOVERLAP>
50.837

> <PUBCHEM_SHAPE_FINGERPRINT>
107951 10 16523875571898503961
10940486 97 17829625967841121286
1100329 8 13800017792690573980
11014199 57 18411142458559811943
11552529 35 17988638537086851272
12156800 1 10650969512313344197
12422481 6 17981635696665542601
12553582 1 18336845142055956385
13122387 1 16177361063399672879
13402501 40 17693098465867920380
1361 2 17113535377594381483
138480 1 15023302590860490261
14251757 5 17834701308751060502
14659021 117 18192980535573464922
14725015 67 17835517120677228615
15110567 62 17403179691313073627
16719943 64 17183911268033506846
19141452 34 18268995289182384681
19930381 70 18122062267658106115
20028762 73 17695637633654270028
20775438 99 17835474454736212397
20775530 9 18413110549950229523
21133410 52 17764856284896779398
21344244 181 17975953403182564157
22113638 7 17980754166821537782
23559900 14 18266730467132820081
4280585 95 18262784238095874120
463206 1 18410577262327562337
5265222 85 17256553828522295884
5309563 4 18195529422585896739
550186 72 18407760323056693036
56633871 153 18340216232517979579
613672 6 18338218440843017559
9709674 26 18195523688920620624

> <PUBCHEM_SHAPE_MULTIPOLES>
489.58
8.75
6.67
1.08
0.5
2.04
0.12
-9.53
0.84
-1.62
-2.16
-0.2
-0.02
0.17

> <PUBCHEM_SHAPE_SELFOVERLAP>
1065.714

> <PUBCHEM_SHAPE_VOLUME>
263.7

> <PUBCHEM_COORDINATE_TYPE>
2
5
10

$$$$
25009894
  -OEChem-05102415113D

 53 56  0     1  0  0  0  0  0999 V2000
   -0.6721   -3.7510    0.8196 O   0  0  0  0  0  0  0  0  0  0  0  0
    2.1033   -3.9216    0.6860 O   0  0  0  0  0  0  0  0  0  0  0  0
   -2.8786    1.4255   -0.0003 N   0  0  2  0  0  0  0  0  0  0  0  0
    0.4277    3.0279    0.7001 N   0  0  0  0  0  0  0  0  0  0  0  0
    4.7748   -0.0179   -0.6567 N   0  0  0  0  0  0  0  0  0  0  0  0
    4.3160   -0.8267   -1.6263 N   0  0  0  0  0  0  0  0  0  0  0  0
   -0.8424    2.8375    0.0309 C   0  0  2  0  0  0  0  0  0  0  0  0
   -1.6998    4.0936    0.1897 C   0  0  0  0  0  0  0  0  0  0  0  0
   -1.5557    1.6104    0.6141 C   0  0  0  0  0  0  0  0  0  0  0  0
   -3.0963    3.8602   -0.3761 C   0  0  0  0  0  0  0  0  0  0  0  0
   -3.7326    2.6016    0.2149 C   0  0  0  0  0  0  0  0  0  0  0  0
   -3.5235    0.2220    0.5246 C   0  0  0  0  0  0  0  0  0  0  0  0
   -2.9481   -1.0314   -0.0792 C   0  0  0  0  0  0  0  0  0  0  0  0
    1.5635    2.2941    0.4081 C   0  0  0  0  0  0  0  0  0  0  0  0
    1.5088    1.3071   -0.5842 C   0  0  0  0  0  0  0  0  0  0  0  0
    2.7467    2.5481    1.1041 C   0  0  0  0  0  0  0  0  0  0  0  0
   -2.0653   -1.8198    0.6589 C   0  0  0  0  0  0  0  0  0  0  0  0
   -3.2981   -1.4043   -1.3769 C   0  0  0  0  0  0  0  0  0  0  0  0
    2.6737    0.5742   -0.8664 C   0  0  0  0  0  0  0  0  0  0  0  0
    3.8387    0.8474   -0.1581 C   0  0  0  0  0  0  0  0  0  0  0  0
    3.9145    1.8269    0.8346 C   0  0  0  0  0  0  0  0  0  0  0  0
   -1.5328   -2.9812    0.0994 C   0  0  0  0  0  0  0  0  0  0  0  0
   -2.7654   -2.5656   -1.9366 C   0  0  0  0  0  0  0  0  0  0  0  0
   -1.8828   -3.3540   -1.1983 C   0  0  0  0  0  0  0  0  0  0  0  0
    3.0375   -0.4637   -1.7509 C   0  0  0  0  0  0  0  0  0  0  0  0
    0.1456   -3.0854    1.7810 C   0  0  0  0  0  0  0  0  0  0  0  0
    1.4429   -3.8538    1.9439 C   0  0  0  0  0  0  0  0  0  0  0  0
   -0.6971    2.7110   -1.0501 H   0  0  0  0  0  0  0  0  0  0  0  0
   -1.7810    4.3663    1.2503 H   0  0  0  0  0  0  0  0  0  0  0  0
   -1.2281    4.9449   -0.3158 H   0  0  0  0  0  0  0  0  0  0  0  0
   -0.9387    0.7227    0.4516 H   0  0  0  0  0  0  0  0  0  0  0  0
   -1.6505    1.7218    1.7041 H   0  0  0  0  0  0  0  0  0  0  0  0
   -3.0379    3.7654   -1.4678 H   0  0  0  0  0  0  0  0  0  0  0  0
   -3.7300    4.7290   -0.1648 H   0  0  0  0  0  0  0  0  0  0  0  0
   -4.7028    2.4536   -0.2749 H   0  0  0  0  0  0  0  0  0  0  0  0
   -3.9264    2.7526    1.2851 H   0  0  0  0  0  0  0  0  0  0  0  0
   -4.5942    0.2234    0.2753 H   0  0  0  0  0  0  0  0  0  0  0  0
   -3.4860    0.1859    1.6220 H   0  0  0  0  0  0  0  0  0  0  0  0
    0.4735    3.6809    1.4748 H   0  0  0  0  0  0  0  0  0  0  0  0
    0.6212    1.0751   -1.1591 H   0  0  0  0  0  0  0  0  0  0  0  0
    2.7771    3.3178    1.8727 H   0  0  0  0  0  0  0  0  0  0  0  0
   -1.8315   -1.5202    1.6767 H   0  0  0  0  0  0  0  0  0  0  0  0
   -3.9846   -0.7982   -1.9623 H   0  0  0  0  0  0  0  0  0  0  0  0
    4.8345    2.0226    1.3740 H   0  0  0  0  0  0  0  0  0  0  0  0
   -3.0377   -2.8559   -2.9470 H   0  0  0  0  0  0  0  0  0  0  0  0
   -1.4707   -4.2575   -1.6395 H   0  0  0  0  0  0  0  0  0  0  0  0
    2.4217   -0.9706   -2.4805 H   0  0  0  0  0  0  0  0  0  0  0  0
    5.7442   -0.1072   -0.3788 H   0  0  0  0  0  0  0  0  0  0  0  0
   -0.3826   -3.0363    2.7393 H   0  0  0  0  0  0  0  0  0  0  0  0
    0.4035   -2.0731    1.4427 H   0  0  0  0  0  0  0  0  0  0  0  0
    2.1004   -3.3613    2.6663 H   0  0  0  0  0  0  0  0  0  0  0  0
    1.2436   -4.8791    2.2710 H   0  0  0  0  0  0  0  0  0  0  0  0
    2.9285   -4.4171    0.8238 H   0  0  0  0  0  0  0  0  0  0  0  0
  1 22  1  0  0  0  0
  1 26  1  0  0  0  0
  2 27  1  0  0  0  0
  2 53  1  0  0  0  0
  3  9  1  0  0  0  0
  3 11  1  0  0  0  0
  3 12  1  0  0  0  0
  4  7  1  0  0  0  0
  4 14  1  0  0  0  0
  4 39  1  0  0  0  0
  5  6  1  0  0  0  0
  5 20  1  0  0  0  0
  5 48  1  0  0  0  0
  6 25  2  0  0  0  0
  7  8  1  0  0  0  0
  7  9  1  0  0  0  0
  7 28  1  0  0  0  0
  8 10  1  0  0  0  0
  8 29  1  0  0  0  0
  8 30  1  0  0  0  0
  9 31  1  0  0  0  0
  9 32  1  0  0  0  0
 10 11  1  0  0  0  0
 10 33  1  0  0  0  0
 10 34  1  0  0  0  0
 11 35  1  0  0  0  0
 11 36  1  0  0  0  0
 12 13  1  0  0  0  0
 12 37  1  0  0  0  0
 12 38  1  0  0  0  0
 13 17  2  0  0  0  0
 13 18  1  0  0  0  0
 14 15  2  0  0  0  0
 14 16  1  0  0  0  0
 15 19  1  0  0  0  0
 15 40  1  0  0  0  0
 16 21  2  0  0  0  0
 16 41  1  0  0  0  0
 17 22  1  0  0  0  0
 17 42  1  0  0  0  0
 18 23  2  0  0  0  0
 18 43  1  0  0  0  0
 19 20  2  0  0  0  0
 19 25  1  0  0  0  0
 20 21  1  0  0  0  0
 21 44  1  0  0  0  0
 22 24  2  0  0  0  0
 23 24  1  0  0  0  0
 23 45  1  0  0  0  0
 24 46  1  0  0  0  0
 25 47  1  0  0  0  0
 26 27  1  0  0  0  0
 26 49  1  0  0  0  0
 26 50  1  0  0  0  0
 27 51  1  0  0  0  0
 27 52  1  0  0  0  0
M  END
> <PUBCHEM_COMPOUND_CID>
25009894

> <PUBCHEM_CONFORMER_RMSD>
1

> <PUBCHEM_CONFORMER_DIVERSEORDER>
1
177
190
110
114
196
267
209
193
246
131
137
158
207
213
103
6
121
99
136
189
180
143
241
328
200
174
3
313
221
124
97
13
201
58
252
292
316
17
204
289
37
264
238
248
310
148
233
211
70
214
161
199
144
117
300
25
305
318
237
229
154
23
95
34
323
127
120
175
18
4
87
146
206
331
167
139
65
258
61
149
105
225
75
113
150
219
133
194
171
36
261
179
76
160
86
63
92
169
68
244
191
299
298
94
141
78
122
228
293
269
275
152
309
195
304
319
140
14
226
20
218
125
250
279
220
280
145
170
288
163
172
59
16
330
324
153
7
49
234
232
168
322
116
188
123
274
277
327
253
96
165
22
247
205
115
93
30
321
173
183
62
287
240
80
100
40
29
230
45
129
231
302
254
77
256
181
89
126
296
81
284
73
112
176
268
242
192
157
307
69
151
216
47
297
197
263
156
272
301
90
215
2
104
84
266
326
142
10
251
51
185
118
38
35
333
182
257
314
283
74
224
107
262
8
278
98
329
138
147
106
217
282
325
187
239
83
28
235
5
203
27
295
249
101
32
312
9
210
236
227
303
111
162
265
134
41
290
260
26
291
43
50
52
155
178
276
320
223
108
66
55
79
294
119
255
281
222
54
202
212
317
64
88
85
11
159
132
245
135
128
56
311
71
332
308
259
270
306
33
208
53
102
243
91
285
186
286
15
44
198
46
21
315
57
72
271
12
130
166
19
60
273
184
31
42
67
39
334
82
48
164
109
24

> <PUBCHEM_MMFF94_PARTIAL_CHARGES>
35
1 -0.36
11 0.27
12 0.41
13 -0.14
14 0.1
15 -0.15
16 -0.15
17 -0.15
18 -0.15
2 -0.68
20 -0.15
21 -0.15
22 0.08
23 -0.15
24 -0.15
25 0.14
26 0.28
27 0.28
3 -0.81
39 0.4
4 -0.87
40 0.15
41 0.15
42 0.15
43 0.15
44 0.15
45 0.15
46 0.15
47 0.15
48 0.27
5 0.3
53 0.4
6 -0.71
7 0.37
9 0.27

> <PUBCHEM_EFFECTIVE_ROTOR_COUNT>
8.2

> <PUBCHEM_PHARMACOPHORE_FEATURES>
12
1 1 acceptor
1 2 acceptor
1 2 donor
1 3 cation
1 4 cation
1 4 donor
1 5 donor
1 6 acceptor
5 5 6 19 20 25 rings
6 13 17 18 22 23 24 rings
6 14 15 16 19 20 21 rings
6 3 7 8 9 10 11 rings

> <PUBCHEM_HEAVY_ATOM_COUNT>
27

> <PUBCHEM_ATOM_DEF_STEREO_COUNT>
0

> <PUBCHEM_ATOM_UDEF_STEREO_COUNT>
1

> <PUBCHEM_BOND_DEF_STEREO_COUNT>
0

> <PUBCHEM_BOND_UDEF_STEREO_COUNT>
0

> <PUBCHEM_ISOTOPIC_ATOM_COUNT>
0

> <PUBCHEM_COMPONENT_COUNT>
1

> <PUBCHEM_CACTVS_TAUTO_COUNT>
2

> <PUBCHEM_CONFORMER_ID>
017D9EE600000001

> <PUBCHEM_MMFF94_ENERGY>
71.0211

> <PUBCHEM_FEATURE_SELFOVERLAP>
60.992

> <PUBCHEM_SHAPE_FINGERPRINT>
10006869 2 18339081476720920563
1100329 8 17904763271862157026
11828532 37 16238410999893105162
12156800 1 16554194789886105261
12202916 173 17621289752484841202
12553582 1 17834406987416228237
12788726 201 18337388356887704336
13122387 1 17763191236885231998
140371 6 17690276440748597897
14114206 34 18263083373772144140
14117953 113 16174250545083497998
14251757 5 18194991662668362764
14659021 117 18267577082459382304
14725015 67 18267577103575691770
15297060 5 17194032302911375706
15322534 239 18263657190563334806
19930381 70 17261309722707844975
20600515 1 17609758048646748748
20764821 26 18047482393697913074
22113638 7 17545586864841103019
3298306 158 18121503449431581589
338550 245 18117282445935924642
474144 1 17467365417514083750
5309563 4 16826439718458272683
57091435 65 18119251662122769603
57527585 103 17683813485282580523
6287921 2 15748946227460875938
9709674 26 18199188558443949740

> <PUBCHEM_SHAPE_MULTIPOLES>
523.98
7.73
6.65
1.58
5.62
0.63
0.18
-0.75
2.35
-3.78
-2.18
0.41
1.68
-0.29

> <PUBCHEM_SHAPE_SELFOVERLAP>
1126.314

> <PUBCHEM_SHAPE_VOLUME>
289.8

> <PUBCHEM_COORDINATE_TYPE>
2
5
10

$$$$
57446046
  -OEChem-05102415113D

 49 52  0     1  0  0  0  0  0999 V2000
   -1.1431   -4.0149    1.5868 S   0  0  0  0  0  0  0  0  0  0  0  0
   -2.5105    1.6334   -0.0779 N   0  0  2  0  0  0  0  0  0  0  0  0
    1.0397    2.6360    0.5397 N   0  0  0  0  0  0  0  0  0  0  0  0
    4.7183   -1.3192   -0.3754 N   0  0  0  0  0  0  0  0  0  0  0  0
    4.1169   -2.1231   -1.2681 N   0  0  0  0  0  0  0  0  0  0  0  0
   -0.2394    2.6227   -0.1395 C   0  0  2  0  0  0  0  0  0  0  0  0
   -0.8379    4.0299   -0.1350 C   0  0  0  0  0  0  0  0  0  0  0  0
   -1.1806    1.6252    0.5489 C   0  0  0  0  0  0  0  0  0  0  0  0
   -2.2498    4.0100   -0.7102 C   0  0  0  0  0  0  0  0  0  0  0  0
   -3.1216    2.9678   -0.0087 C   0  0  0  0  0  0  0  0  0  0  0  0
   -3.3795    0.6396    0.5520 C   0  0  0  0  0  0  0  0  0  0  0  0
    2.0131    1.6706    0.3559 C   0  0  0  0  0  0  0  0  0  0  0  0
   -3.0544   -0.7584    0.0971 C   0  0  0  0  0  0  0  0  0  0  0  0
    1.7735    0.6123   -0.5297 C   0  0  0  0  0  0  0  0  0  0  0  0
    3.2185    1.7638    1.0540 C   0  0  0  0  0  0  0  0  0  0  0  0
   -2.3466   -1.6188    0.9362 C   0  0  0  0  0  0  0  0  0  0  0  0
   -3.4622   -1.1932   -1.1642 C   0  0  0  0  0  0  0  0  0  0  0  0
    2.7747   -0.3579   -0.7025 C   0  0  0  0  0  0  0  0  0  0  0  0
    3.9658   -0.2410    0.0051 C   0  0  0  0  0  0  0  0  0  0  0  0
    4.2248    0.8058    0.8925 C   0  0  0  0  0  0  0  0  0  0  0  0
   -2.0465   -2.9141    0.5145 C   0  0  0  0  0  0  0  0  0  0  0  0
   -3.1619   -2.4883   -1.5861 C   0  0  0  0  0  0  0  0  0  0  0  0
   -2.4544   -3.3489   -0.7468 C   0  0  0  0  0  0  0  0  0  0  0  0
    2.9346   -1.5350   -1.4647 C   0  0  0  0  0  0  0  0  0  0  0  0
    0.4087   -3.1044    1.8261 C   0  0  0  0  0  0  0  0  0  0  0  0
   -0.1151    2.3559   -1.1973 H   0  0  0  0  0  0  0  0  0  0  0  0
   -0.2071    4.7156   -0.7134 H   0  0  0  0  0  0  0  0  0  0  0  0
   -0.8709    4.4250    0.8891 H   0  0  0  0  0  0  0  0  0  0  0  0
   -0.7464    0.6234    0.4960 H   0  0  0  0  0  0  0  0  0  0  0  0
   -1.2584    1.8689    1.6185 H   0  0  0  0  0  0  0  0  0  0  0  0
   -2.7042    5.0019   -0.6073 H   0  0  0  0  0  0  0  0  0  0  0  0
   -2.2044    3.7893   -1.7843 H   0  0  0  0  0  0  0  0  0  0  0  0
   -4.0992    2.9574   -0.5060 H   0  0  0  0  0  0  0  0  0  0  0  0
   -3.2887    3.2669    1.0345 H   0  0  0  0  0  0  0  0  0  0  0  0
   -4.4283    0.8200    0.2762 H   0  0  0  0  0  0  0  0  0  0  0  0
   -3.3553    0.7138    1.6479 H   0  0  0  0  0  0  0  0  0  0  0  0
    1.2071    3.3479    1.2426 H   0  0  0  0  0  0  0  0  0  0  0  0
    0.8613    0.4959   -1.1014 H   0  0  0  0  0  0  0  0  0  0  0  0
    3.3934    2.5907    1.7394 H   0  0  0  0  0  0  0  0  0  0  0  0
   -2.0393   -1.2736    1.9209 H   0  0  0  0  0  0  0  0  0  0  0  0
   -4.0140   -0.5322   -1.8273 H   0  0  0  0  0  0  0  0  0  0  0  0
    5.1616    0.8764    1.4338 H   0  0  0  0  0  0  0  0  0  0  0  0
   -3.4792   -2.8266   -2.5682 H   0  0  0  0  0  0  0  0  0  0  0  0
   -2.2296   -4.3547   -1.0931 H   0  0  0  0  0  0  0  0  0  0  0  0
    2.2366   -1.9881   -2.1545 H   0  0  0  0  0  0  0  0  0  0  0  0
    5.6497   -1.5641   -0.0634 H   0  0  0  0  0  0  0  0  0  0  0  0
    1.0995   -3.7204    2.4077 H   0  0  0  0  0  0  0  0  0  0  0  0
    0.2331   -2.1727    2.3700 H   0  0  0  0  0  0  0  0  0  0  0  0
    0.8693   -2.8797    0.8604 H   0  0  0  0  0  0  0  0  0  0  0  0
  1 21  1  0  0  0  0
  1 25  1  0  0  0  0
  2  8  1  0  0  0  0
  2 10  1  0  0  0  0
  2 11  1  0  0  0  0
  3  6  1  0  0  0  0
  3 12  1  0  0  0  0
  3 37  1  0  0  0  0
  4  5  1  0  0  0  0
  4 19  1  0  0  0  0
  4 46  1  0  0  0  0
  5 24  2  0  0  0  0
  6  7  1  0  0  0  0
  6  8  1  0  0  0  0
  6 26  1  0  0  0  0
  7  9  1  0  0  0  0
  7 27  1  0  0  0  0
  7 28  1  0  0  0  0
  8 29  1  0  0  0  0
  8 30  1  0  0  0  0
  9 10  1  0  0  0  0
  9 31  1  0  0  0  0
  9 32  1  0  0  0  0
 10 33  1  0  0  0  0
 10 34  1  0  0  0  0
 11 13  1  0  0  0  0
 11 35  1  0  0  0  0
 11 36  1  0  0  0  0
 12 14  2  0  0  0  0
 12 15  1  0  0  0  0
 13 16  2  0  0  0  0
 13 17  1  0  0  0  0
 14 18  1  0  0  0  0
 14 38  1  0  0  0  0
 15 20  2  0  0  0  0
 15 39  1  0  0  0  0
 16 21  1  0  0  0  0
 16 40  1  0  0  0  0
 17 22  2  0  0  0  0
 17 41  1  0  0  0  0
 18 19  2  0  0  0  0
 18 24  1  0  0  0  0
 19 20  1  0  0  0  0
 20 42  1  0  0  0  0
 21 23  2  0  0  0  0
 22 23  1  0  0  0  0
 22 43  1  0  0  0  0
 23 44  1  0  0  0  0
 24 45  1  0  0  0  0
 25 47  1  0  0  0  0
 25 48  1  0  0  0  0
 25 49  1  0  0  0  0
M  END
> <PUBCHEM_COMPOUND_CID>
57446046

> <PUBCHEM_CONFORMER_RMSD>
1

> <PUBCHEM_CONFORMER_DIVERSEORDER>
1
252
72
144
278
269
27
58
265
192
172
66
271
163
180
200
218
262
127
272
173
207
57
217
52
96
236
34
67
99
59
123
250
63
2
17
40
133
249
170
189
184
188
228
176
254
182
101
197
100
46
141
107
33
156
155
194
233
214
222
120
267
244
62
257
212
69
230
234
157
220
44
240
154
102
136
70
260
263
116
77
54
84
32
205
201
56
126
50
95
8
186
90
160
140
21
45
243
53
74
158
195
247
224
115
129
213
9
146
216
124
227
112
92
164
38
117
261
187
37
28
143
274
43
25
149
68
175
108
20
71
7
35
79
191
251
91
165
65
64
215
6
152
273
29
80
81
196
206
131
255
225
203
75
26
19
229
109
97
105
5
121
76
185
241
86
36
232
111
137
128
93
259
174
88
223
134
114
113
169
48
193
4
237
183
276
226
73
204
23
275
209
210
159
14
3
47
142
167
238
106
256
42
168
51
89
162
266
219
166
24
151
239
161
130
242
270
202
83
10
199
135
153
41
177
49
55
94
119
22
132
85
11
139
248
208
13
110
138
245
179
268
150
104
277
198
253
12
178
125
30
39
211
122
190
145
147
31
171
148
78
221
258
16
235
60
118
87
15
18
264
61
103
246
82
231
98
181

> <PUBCHEM_MMFF94_PARTIAL_CHARGES>
32
1 -0.33
10 0.27
11 0.41
12 0.1
13 -0.14
14 -0.15
15 -0.15
16 -0.15
17 -0.15
19 -0.15
2 -0.81
20 -0.15
21 0.1
22 -0.15
23 -0.15
24 0.14
25 0.23
3 -0.87
37 0.4
38 0.15
39 0.15
4 0.3
40 0.15
41 0.15
42 0.15
43 0.15
44 0.15
45 0.15
46 0.27
5 -0.71
6 0.37
8 0.27

> <PUBCHEM_EFFECTIVE_ROTOR_COUNT>
6.2

> <PUBCHEM_PHARMACOPHORE_FEATURES>
10
1 2 cation
1 25 hydrophobe
1 3 cation
1 3 donor
1 4 donor
1 5 acceptor
5 4 5 18 19 24 rings
6 12 14 15 18 19 20 rings
6 13 16 17 21 22 23 rings
6 2 6 7 8 9 10 rings

> <PUBCHEM_HEAVY_ATOM_COUNT>
25

> <PUBCHEM_ATOM_DEF_STEREO_COUNT>
0

> <PUBCHEM_ATOM_UDEF_STEREO_COUNT>
1

> <PUBCHEM_BOND_DEF_STEREO_COUNT>
0

> <PUBCHEM_BOND_UDEF_STEREO_COUNT>
0

> <PUBCHEM_ISOTOPIC_ATOM_COUNT>
0

> <PUBCHEM_COMPONENT_COUNT>
1

> <PUBCHEM_CACTVS_TAUTO_COUNT>
2

> <PUBCHEM_CONFORMER_ID>
036C8E9E00000001

> <PUBCHEM_MMFF94_ENERGY>
61.0444

> <PUBCHEM_FEATURE_SELFOVERLAP>
50.837

> <PUBCHEM_SHAPE_FINGERPRINT>
107951 10 17316784078906880737
1100329 8 17615686228865673554
11552529 35 17703791461166368585
11828532 37 16813190543352129243
12156800 1 16263700472079837055
12202916 173 17906986806501563066
12422481 6 18127160583307279555
12553582 1 18121231036566528205
12788726 201 18408037424906246448
13122387 1 17402055495891108046
13402501 40 18199756846877787196
1361 2 15529392125186242903
140371 6 18049437342768648329
14251757 5 18194427553121172774
14363568 33 16966351443547726232
14659021 117 18337662096802193546
14725015 67 18411134719155644059
17627616 140 17686343061990161043
19315092 285 15981151560340606887
19930381 70 17619909899731122031
20600515 1 17751624683919733526
22113638 7 16967714283920921811
23559900 14 17689704686096070785
238 59 16611086081260647239
3298306 158 17760086220570330149
445580 102 17327180351756808163
469060 322 17268310193071987612
474144 1 17033609136850081994
5265222 85 17975722522740855980
5309563 4 17401774510767678459
57091435 65 17542794105422817707
613672 6 18122329448577240019
9709674 26 18341893013055988976

> <PUBCHEM_SHAPE_MULTIPOLES>
498.41
8.05
6.03
1.41
6.36
2.06
-0.01
-3.31
-1.47
-4.4
0.66
-0.04
-1.37
1.06

> <PUBCHEM_SHAPE_SELFOVERLAP>
1060.816

> <PUBCHEM_SHAPE_VOLUME>
279.9

> <PUBCHEM_COORDINATE_TYPE>
2
5
10

$$$$
25009015
  -OEChem-05102415113D

 54 57  0     1  0  0  0  0  0999 V2000
    2.1676   -2.7999    0.6161 S   0  0  0  0  0  0  0  0  0  0  0  0
    2.4462   -3.3673   -0.6929 O   0  0  0  0  0  0  0  0  0  0  0  0
    2.0072   -1.3646    0.7796 O   0  0  0  0  0  0  0  0  0  0  0  0
   -3.3200    0.3413   -0.0133 N   0  0  2  0  0  0  0  0  0  0  0  0
   -0.8798    3.1097    0.5963 N   0  0  0  0  0  0  0  0  0  0  0  0
    4.3354    1.8399   -0.5010 N   0  0  0  0  0  0  0  0  0  0  0  0
    4.2465    0.8577   -1.4132 N   0  0  0  0  0  0  0  0  0  0  0  0
   -1.9624    2.4136   -0.0677 C   0  0  1  0  0  0  0  0  0  0  0  0
   -2.1846    1.0485    0.5969 C   0  0  0  0  0  0  0  0  0  0  0  0
   -3.2325    3.2630   -0.0073 C   0  0  0  0  0  0  0  0  0  0  0  0
   -4.4197    2.4864   -0.5660 C   0  0  0  0  0  0  0  0  0  0  0  0
   -4.5590    1.1216    0.1092 C   0  0  0  0  0  0  0  0  0  0  0  0
   -3.4856   -0.9800    0.5920 C   0  0  0  0  0  0  0  0  0  0  0  0
   -2.4625   -1.9614    0.0852 C   0  0  0  0  0  0  0  0  0  0  0  0
    0.4573    2.8393    0.3674 C   0  0  0  0  0  0  0  0  0  0  0  0
   -1.3750   -2.3119    0.8854 C   0  0  0  0  0  0  0  0  0  0  0  0
   -2.6025   -2.5205   -1.1850 C   0  0  0  0  0  0  0  0  0  0  0  0
    0.8105    1.8427   -0.5512 C   0  0  0  0  0  0  0  0  0  0  0  0
   -0.4277   -3.2215    0.4155 C   0  0  0  0  0  0  0  0  0  0  0  0
    1.4347    3.5631    1.0528 C   0  0  0  0  0  0  0  0  0  0  0  0
    0.7357   -3.5951    1.2705 C   0  0  0  0  0  0  0  0  0  0  0  0
    2.1740    1.5846   -0.7701 C   0  0  0  0  0  0  0  0  0  0  0  0
   -1.6552   -3.4300   -1.6550 C   0  0  0  0  0  0  0  0  0  0  0  0
   -0.5679   -3.7805   -0.8548 C   0  0  0  0  0  0  0  0  0  0  0  0
    3.1268    2.3202   -0.0740 C   0  0  0  0  0  0  0  0  0  0  0  0
    2.7961    3.3178    0.8458 C   0  0  0  0  0  0  0  0  0  0  0  0
    2.9302    0.7051   -1.5743 C   0  0  0  0  0  0  0  0  0  0  0  0
    3.4665   -3.3219    1.7132 C   0  0  0  0  0  0  0  0  0  0  0  0
   -1.7429    2.2821   -1.1355 H   0  0  0  0  0  0  0  0  0  0  0  0
   -1.2750    0.4493    0.5038 H   0  0  0  0  0  0  0  0  0  0  0  0
   -2.3519    1.1856    1.6751 H   0  0  0  0  0  0  0  0  0  0  0  0
   -3.4466    3.5525    1.0301 H   0  0  0  0  0  0  0  0  0  0  0  0
   -3.0963    4.1950   -0.5692 H   0  0  0  0  0  0  0  0  0  0  0  0
   -5.3393    3.0651   -0.4235 H   0  0  0  0  0  0  0  0  0  0  0  0
   -4.2921    2.3508   -1.6476 H   0  0  0  0  0  0  0  0  0  0  0  0
   -5.3857    0.5889   -0.3765 H   0  0  0  0  0  0  0  0  0  0  0  0
   -4.8322    1.2568    1.1641 H   0  0  0  0  0  0  0  0  0  0  0  0
   -3.4739   -0.9294    1.6894 H   0  0  0  0  0  0  0  0  0  0  0  0
   -4.4698   -1.3970    0.3354 H   0  0  0  0  0  0  0  0  0  0  0  0
   -1.1086    3.7803    1.3220 H   0  0  0  0  0  0  0  0  0  0  0  0
   -1.2651   -1.8742    1.8747 H   0  0  0  0  0  0  0  0  0  0  0  0
   -3.4458   -2.2562   -1.8176 H   0  0  0  0  0  0  0  0  0  0  0  0
    0.0947    1.2576   -1.1149 H   0  0  0  0  0  0  0  0  0  0  0  0
    1.1481    4.3354    1.7639 H   0  0  0  0  0  0  0  0  0  0  0  0
    0.6077   -3.2684    2.3071 H   0  0  0  0  0  0  0  0  0  0  0  0
    0.8986   -4.6772    1.2622 H   0  0  0  0  0  0  0  0  0  0  0  0
   -1.7669   -3.8689   -2.6422 H   0  0  0  0  0  0  0  0  0  0  0  0
    0.1471   -4.5068   -1.2307 H   0  0  0  0  0  0  0  0  0  0  0  0
    3.5566    3.8788    1.3772 H   0  0  0  0  0  0  0  0  0  0  0  0
    2.5745   -0.0419   -2.2699 H   0  0  0  0  0  0  0  0  0  0  0  0
    5.2575    2.1393   -0.2095 H   0  0  0  0  0  0  0  0  0  0  0  0
    3.5428   -4.4100    1.6755 H   0  0  0  0  0  0  0  0  0  0  0  0
    3.2305   -2.9836    2.7238 H   0  0  0  0  0  0  0  0  0  0  0  0
    4.4003   -2.8683    1.3746 H   0  0  0  0  0  0  0  0  0  0  0  0
  1  2  2  0  0  0  0
  1  3  2  0  0  0  0
  1 21  1  0  0  0  0
  1 28  1  0  0  0  0
  4  9  1  0  0  0  0
  4 12  1  0  0  0  0
  4 13  1  0  0  0  0
  5  8  1  0  0  0  0
  5 15  1  0  0  0  0
  5 40  1  0  0  0  0
  6  7  1  0  0  0  0
  6 25  1  0  0  0  0
  6 51  1  0  0  0  0
  7 27  2  0  0  0  0
  8  9  1  0  0  0  0
  8 10  1  0  0  0  0
  8 29  1  0  0  0  0
  9 30  1  0  0  0  0
  9 31  1  0  0  0  0
 10 11  1  0  0  0  0
 10 32  1  0  0  0  0
 10 33  1  0  0  0  0
 11 12  1  0  0  0  0
 11 34  1  0  0  0  0
 11 35  1  0  0  0  0
 12 36  1  0  0  0  0
 12 37  1  0  0  0  0
 13 14  1  0  0  0  0
 13 38  1  0  0  0  0
 13 39  1  0  0  0  0
 14 16  2  0  0  0  0
 14 17  1  0  0  0  0
 15 18  2  0  0  0  0
 15 20  1  0  0  0  0
 16 19  1  0  0  0  0
 16 41  1  0  0  0  0
 17 23  2  0  0  0  0
 17 42  1  0  0  0  0
 18 22  1  0  0  0  0
 18 43  1  0  0  0  0
 19 21  1  0  0  0  0
 19 24  2  0  0  0  0
 20 26  2  0  0  0  0
 20 44  1  0  0  0  0
 21 45  1  0  0  0  0
 21 46  1  0  0  0  0
 22 25  2  0  0  0  0
 22 27  1  0  0  0  0
 23 24  1  0  0  0  0
 23 47  1  0  0  0  0
 24 48  1  0  0  0  0
 25 26  1  0  0  0  0
 26 49  1  0  0  0  0
 27 50  1  0  0  0  0
 28 52  1  0  0  0  0
 28 53  1  0  0  0  0
 28 54  1  0  0  0  0
M  END
> <PUBCHEM_COMPOUND_CID>
25009015

> <PUBCHEM_CONFORMER_RMSD>
1.2

> <PUBCHEM_CONFORMER_DIVERSEORDER>
1
123
95
78
96
11
130
238
101
40
5
56
227
141
147
102
50
196
180
127
21
85
45
131
165
186
80
81
126
65
79
24
145
42
46
87
217
212
2
138
169
128
122
70
195
90
108
51
15
27
206
135
137
182
194
170
214
20
71
129
39
234
209
94
167
41
111
168
173
103
228
55
151
136
89
99
184
28
223
32
61
160
49
232
115
119
93
31
159
57
198
107
236
144
86
230
3
106
124
54
43
179
148
35
171
83
120
166
225
157
76
134
154
197
185
237
162
23
84
216
231
233
30
183
213
218
143
100
150
174
207
6
156
14
133
201
62
161
140
149
152
224
58
10
158
155
113
235
200
105
53
33
210
97
29
178
48
109
64
146
59
104
4
190
77
220
153
92
17
163
203
82
114
8
74
47
68
192
34
175
132
215
72
52
37
22
205
66
202
226
7
69
125
188
25
221
208
12
60
229
142
63
112
172
36
117
121
176
139
110
211
73
26
219
88
18
199
191
116
16
98
91
187
38
189
19
75
164
177
13
204
44
9
181
67
118
222
193

> <PUBCHEM_MMFF94_PARTIAL_CHARGES>
35
1 1.09
12 0.27
13 0.41
14 -0.14
15 0.1
16 -0.15
17 -0.15
18 -0.15
19 -0.14
2 -0.65
20 -0.15
21 0.25
23 -0.15
24 -0.15
25 -0.15
26 -0.15
27 0.14
28 0.11
3 -0.65
4 -0.81
40 0.4
41 0.15
42 0.15
43 0.15
44 0.15
47 0.15
48 0.15
49 0.15
5 -0.87
50 0.15
51 0.27
6 0.3
7 -0.71
8 0.37
9 0.27

> <PUBCHEM_EFFECTIVE_ROTOR_COUNT>
7.2

> <PUBCHEM_PHARMACOPHORE_FEATURES>
11
1 2 acceptor
1 3 acceptor
1 4 cation
1 5 cation
1 5 donor
1 6 donor
1 7 acceptor
5 6 7 22 25 27 rings
6 14 16 17 19 23 24 rings
6 15 18 20 22 25 26 rings
6 4 8 9 10 11 12 rings

> <PUBCHEM_HEAVY_ATOM_COUNT>
28

> <PUBCHEM_ATOM_DEF_STEREO_COUNT>
0

> <PUBCHEM_ATOM_UDEF_STEREO_COUNT>
1

> <PUBCHEM_BOND_DEF_STEREO_COUNT>
0

> <PUBCHEM_BOND_UDEF_STEREO_COUNT>
0

> <PUBCHEM_ISOTOPIC_ATOM_COUNT>
0

> <PUBCHEM_COMPONENT_COUNT>
1

> <PUBCHEM_CACTVS_TAUTO_COUNT>
2

> <PUBCHEM_CONFORMER_ID>
017D9B7700000001

> <PUBCHEM_MMFF94_ENERGY>
64.0311

> <PUBCHEM_FEATURE_SELFOVERLAP>
55.929

> <PUBCHEM_SHAPE_FINGERPRINT>
10675989 125 17978480334500675821
1100329 8 18264767649471423906
11513181 2 18129377099168640886
12038231 1 17907018726444643050
12156800 1 16412907627205346799
12539773 59 16548932819162119003
12553582 1 16968591170266552925
12788726 201 17977380869437252504
13122387 1 18194126222088548454
13642711 20 17115190099159527447
140371 6 17618505376805534449
14117953 113 17400355646608692742
14251757 5 17831321736440511852
14659021 117 17836076050414952560
14725015 67 17835233828618355938
15961568 22 17474382479047383571
161222 619 17762368841506818385
17627616 140 18335422353035970178
19611394 137 18045519521273263131
20764821 26 18339059579996275408
21796203 349 17617134341734907224
22113638 7 18122612860610535823
3027735 51 18194392514893976883
3298306 158 18409169909298867797
338550 245 18333453127768333836
463206 1 18338518543277436016
474144 1 17898866638479019934
5265222 85 18045242654464105972
57091435 65 18408044013338963114
6287921 2 16757475540044404426
6433294 58 18410294662138439832
9709674 26 17837776990397268485

> <PUBCHEM_SHAPE_MULTIPOLES>
548.41
7.56
7.16
1.35
0.84
2.6
-0.18
-3.97
-0.85
-1.4
0.91
-0.8
0.83
-1.38

> <PUBCHEM_SHAPE_SELFOVERLAP>
1169.058

> <PUBCHEM_SHAPE_VOLUME>
307.1

> <PUBCHEM_COORDINATE_TYPE>
2
5
10

$$$$
25009014
  -OEChem-05102415113D

 51 54  0     1  0  0  0  0  0999 V2000
    6.4777    2.3646   -0.1310 O   0  0  0  0  0  0  0  0  0  0  0  0
   -1.3690   -2.9780   -0.1135 N   0  0  2  0  0  0  0  0  0  0  0  0
   -3.6256   -0.0173    0.2502 N   0  0  0  0  0  0  0  0  0  0  0  0
   -1.0837    4.8313    0.0393 N   0  0  0  0  0  0  0  0  0  0  0  0
    0.0268    4.5860   -0.6759 N   0  0  0  0  0  0  0  0  0  0  0  0
   -3.0499   -1.1791   -0.3949 C   0  0  2  0  0  0  0  0  0  0  0  0
   -4.1413   -2.2201   -0.6468 C   0  0  0  0  0  0  0  0  0  0  0  0
   -1.9329   -1.7584    0.4834 C   0  0  0  0  0  0  0  0  0  0  0  0
   -3.5328   -3.5097   -1.1866 C   0  0  0  0  0  0  0  0  0  0  0  0
   -2.4008   -4.0093   -0.2881 C   0  0  0  0  0  0  0  0  0  0  0  0
   -0.2694   -3.4879    0.7054 C   0  0  0  0  0  0  0  0  0  0  0  0
   -3.0375    1.2347    0.2369 C   0  0  0  0  0  0  0  0  0  0  0  0
    0.9896   -2.6839    0.5176 C   0  0  0  0  0  0  0  0  0  0  0  0
   -1.8188    1.4155   -0.4293 C   0  0  0  0  0  0  0  0  0  0  0  0
   -3.6664    2.2992    0.8852 C   0  0  0  0  0  0  0  0  0  0  0  0
    1.7607   -2.8545   -0.6321 C   0  0  0  0  0  0  0  0  0  0  0  0
    1.3846   -1.7683    1.4929 C   0  0  0  0  0  0  0  0  0  0  0  0
   -1.2390    2.6952   -0.4320 C   0  0  0  0  0  0  0  0  0  0  0  0
   -1.8866    3.7377    0.2216 C   0  0  0  0  0  0  0  0  0  0  0  0
   -3.1018    3.5788    0.8913 C   0  0  0  0  0  0  0  0  0  0  0  0
    2.9270   -2.1095   -0.8065 C   0  0  0  0  0  0  0  0  0  0  0  0
    2.5509   -1.0233    1.3185 C   0  0  0  0  0  0  0  0  0  0  0  0
    3.3221   -1.1940    0.1688 C   0  0  0  0  0  0  0  0  0  0  0  0
   -0.0712    3.2856   -0.9607 C   0  0  0  0  0  0  0  0  0  0  0  0
    4.5172   -0.4310   -0.0097 C   0  0  0  0  0  0  0  0  0  0  0  0
    5.5222    0.2095   -0.1601 C   0  0  0  0  0  0  0  0  0  0  0  0
    6.7476    0.9862   -0.3438 C   0  0  0  0  0  0  0  0  0  0  0  0
   -2.6540   -0.9176   -1.3852 H   0  0  0  0  0  0  0  0  0  0  0  0
   -4.6806   -2.4377    0.2846 H   0  0  0  0  0  0  0  0  0  0  0  0
   -4.8844   -1.8317   -1.3537 H   0  0  0  0  0  0  0  0  0  0  0  0
   -1.1497   -1.0071    0.6135 H   0  0  0  0  0  0  0  0  0  0  0  0
   -2.3255   -1.9688    1.4888 H   0  0  0  0  0  0  0  0  0  0  0  0
   -3.1494   -3.3374   -2.2003 H   0  0  0  0  0  0  0  0  0  0  0  0
   -4.3091   -4.2792   -1.2657 H   0  0  0  0  0  0  0  0  0  0  0  0
   -1.9646   -4.8984   -0.7597 H   0  0  0  0  0  0  0  0  0  0  0  0
   -2.8090   -4.3211    0.6823 H   0  0  0  0  0  0  0  0  0  0  0  0
   -0.0250   -4.5200    0.4168 H   0  0  0  0  0  0  0  0  0  0  0  0
   -0.5456   -3.5455    1.7673 H   0  0  0  0  0  0  0  0  0  0  0  0
   -4.4664   -0.1384    0.8043 H   0  0  0  0  0  0  0  0  0  0  0  0
   -1.2932    0.6278   -0.9543 H   0  0  0  0  0  0  0  0  0  0  0  0
   -4.6134    2.1466    1.3992 H   0  0  0  0  0  0  0  0  0  0  0  0
    1.4632   -3.5645   -1.3992 H   0  0  0  0  0  0  0  0  0  0  0  0
    0.7930   -1.6252    2.3932 H   0  0  0  0  0  0  0  0  0  0  0  0
   -3.5886    4.4069    1.3943 H   0  0  0  0  0  0  0  0  0  0  0  0
    3.5173   -2.2537   -1.7083 H   0  0  0  0  0  0  0  0  0  0  0  0
    2.8454   -0.3132    2.0876 H   0  0  0  0  0  0  0  0  0  0  0  0
    0.7125    2.8199   -1.5415 H   0  0  0  0  0  0  0  0  0  0  0  0
   -1.2363    5.7735    0.3768 H   0  0  0  0  0  0  0  0  0  0  0  0
    7.1363    0.8616   -1.3591 H   0  0  0  0  0  0  0  0  0  0  0  0
    7.5168    0.6696    0.3670 H   0  0  0  0  0  0  0  0  0  0  0  0
    7.3140    2.8430   -0.2622 H   0  0  0  0  0  0  0  0  0  0  0  0
  1 27  1  0  0  0  0
  1 51  1  0  0  0  0
  2  8  1  0  0  0  0
  2 10  1  0  0  0  0
  2 11  1  0  0  0  0
  3  6  1  0  0  0  0
  3 12  1  0  0  0  0
  3 39  1  0  0  0  0
  4  5  1  0  0  0  0
  4 19  1  0  0  0  0
  4 48  1  0  0  0  0
  5 24  2  0  0  0  0
  6  7  1  0  0  0  0
  6  8  1  0  0  0  0
  6 28  1  0  0  0  0
  7  9  1  0  0  0  0
  7 29  1  0  0  0  0
  7 30  1  0  0  0  0
  8 31  1  0  0  0  0
  8 32  1  0  0  0  0
  9 10  1  0  0  0  0
  9 33  1  0  0  0  0
  9 34  1  0  0  0  0
 10 35  1  0  0  0  0
 10 36  1  0  0  0  0
 11 13  1  0  0  0  0
 11 37  1  0  0  0  0
 11 38  1  0  0  0  0
 12 14  2  0  0  0  0
 12 15  1  0  0  0  0
 13 16  2  0  0  0  0
 13 17  1  0  0  0  0
 14 18  1  0  0  0  0
 14 40  1  0  0  0  0
 15 20  2  0  0  0  0
 15 41  1  0  0  0  0
 16 21  1  0  0  0  0
 16 42  1  0  0  0  0
 17 22  2  0  0  0  0
 17 43  1  0  0  0  0
 18 19  2  0  0  0  0
 18 24  1  0  0  0  0
 19 20  1  0  0  0  0
 20 44  1  0  0  0  0
 21 23  2  0  0  0  0
 21 45  1  0  0  0  0
 22 23  1  0  0  0  0
 22 46  1  0  0  0  0
 23 25  1  0  0  0  0
 24 47  1  0  0  0  0
 25 26  3  0  0  0  0
 26 27  1  0  0  0  0
 27 49  1  0  0  0  0
 27 50  1  0  0  0  0
M  END
> <PUBCHEM_COMPOUND_CID>
25009014

> <PUBCHEM_CONFORMER_RMSD>
0.8

> <PUBCHEM_CONFORMER_DIVERSEORDER>
1
211
233
149
189
165
223
247
91
138
216
116
75
228
29
237
214
215
134
242
198
150
137
59
174
78
21
98
139
166
126
177
161
196
120
52
102
50
105
123
71
205
244
221
194
169
93
173
92
155
73
99
146
235
185
113
200
112
171
72
145
168
62
69
129
222
212
160
136
180
135
167
232
181
111
100
170
197
16
186
47
175
207
87
156
77
201
199
248
114
65
125
157
46
80
210
26
218
34
234
192
17
39
179
76
5
239
41
97
45
231
220
203
132
178
217
18
213
190
117
84
60
31
109
172
55
70
38
104
236
226
187
141
107
7
158
15
191
208
23
67
33
96
22
151
159
37
44
122
243
245
11
90
83
229
147
148
89
68
74
101
250
53
152
88
195
86
94
193
219
43
184
202
206
163
56
164
162
115
3
238
66
240
48
51
63
30
153
36
106
144
143
108
9
49
32
79
8
133
14
230
20
140
42
25
249
13
82
182
54
119
121
130
61
118
2
103
6
24
225
124
241
131
188
4
183
224
95
127
27
154
12
209
19
85
64
204
227
142
28
128
58
57
81
110
35
246
176
40
10

> <PUBCHEM_MMFF94_PARTIAL_CHARGES>
35
1 -0.68
10 0.27
11 0.41
12 0.1
13 -0.14
14 -0.15
15 -0.15
16 -0.15
17 -0.15
19 -0.15
2 -0.81
20 -0.15
21 -0.15
22 -0.15
23 0.07
24 0.14
25 -0.07
26 -0.2
27 0.48
3 -0.87
39 0.4
4 0.3
40 0.15
41 0.15
42 0.15
43 0.15
44 0.15
45 0.15
46 0.15
47 0.15
48 0.27
5 -0.71
51 0.4
6 0.37
8 0.27

> <PUBCHEM_EFFECTIVE_ROTOR_COUNT>
5.2

> <PUBCHEM_PHARMACOPHORE_FEATURES>
11
1 1 acceptor
1 1 donor
1 2 cation
1 3 cation
1 3 donor
1 4 donor
1 5 acceptor
5 4 5 18 19 24 rings
6 12 14 15 18 19 20 rings
6 13 16 17 21 22 23 rings
6 2 6 7 8 9 10 rings

> <PUBCHEM_HEAVY_ATOM_COUNT>
27

> <PUBCHEM_ATOM_DEF_STEREO_COUNT>
0

> <PUBCHEM_ATOM_UDEF_STEREO_COUNT>
1

> <PUBCHEM_BOND_DEF_STEREO_COUNT>
0

> <PUBCHEM_BOND_UDEF_STEREO_COUNT>
0

> <PUBCHEM_ISOTOPIC_ATOM_COUNT>
0

> <PUBCHEM_COMPONENT_COUNT>
1

> <PUBCHEM_CACTVS_TAUTO_COUNT>
2

> <PUBCHEM_CONFORMER_ID>
017D9B7600000001

> <PUBCHEM_MMFF94_ENERGY>
57.8616

> <PUBCHEM_FEATURE_SELFOVERLAP>
55.913

> <PUBCHEM_SHAPE_FINGERPRINT>
10087517 78 18339076094799805546
10498660 4 18264200327558040295
10670039 82 18409445899966260290
10864689 126 18193845834530484964
10871710 139 18410854343943430827
10951579 204 18338816546354159644
1100329 8 18337957917328531063
11059048 146 17406562402959989744
11135609 187 18191574256350385589
11211813 163 18265912263669348110
11476731 118 17762622090207411472
12100795 323 17614279961961941197
12156800 1 16124205586641409339
12788726 201 18336255803834232659
12925494 130 16032954491810874696
12978246 48 17688025319154071616
13122387 1 17904198135596055345
13561361 72 18267290119016114840
13615921 28 18194675097698067759
14114211 80 17914624843539317785
14251764 75 17982742878345227681
14394314 77 18409735079803563849
14725015 67 15169395547178524206
14790565 3 17980769229383082537
151778 21 17331683444783577873
15351339 4 17685206571126034992
15419008 145 18265878307868922112
15721738 15 16170014148821919500
15961568 22 18340206405469483814
16992787 43 18337383826531313485
19611394 137 17826524549739214067
20764821 26 18119262893847623492
20765182 5 18408887373396663428
20771845 165 18200328714212814686
21344244 246 17259612076986856031
21795232 40 18114448029102536525
21859007 373 18272083930036446864
325973 47 17833835245823059476
373842 8 17833265699148265024
463206 1 18263371463120082061
469060 322 18338249227612162667
50677037 204 18338516464756182592
5252454 2 18055630625205073611
550186 7 18343591741773772150
6036956 94 18260272979160924332
6371009 1 17616790168694045027
6608658 132 18340479084179339430
6700243 42 17697354989397737694
7808743 9 18339922623926452074

> <PUBCHEM_SHAPE_MULTIPOLES>
529.85
10.71
7.37
1.05
20.34
4.24
0.14
3.88
-0.93
-6.39
-0.92
-0.08
-0.26
-1.73

> <PUBCHEM_SHAPE_SELFOVERLAP>
1142.904

> <PUBCHEM_SHAPE_VOLUME>
291.3

> <PUBCHEM_COORDINATE_TYPE>
2
5
10

$$$$
25008848
  -OEChem-05102415113D

 54 57  0     1  0  0  0  0  0999 V2000
    6.8606    0.5591   -1.8881 O   0  0  0  0  0  0  0  0  0  0  0  0
   -1.5960   -2.9764   -0.1775 N   0  0  2  0  0  0  0  0  0  0  0  0
   -3.9079   -0.0443    0.0418 N   0  0  0  0  0  0  0  0  0  0  0  0
   -1.4091    4.8293    0.1765 N   0  0  0  0  0  0  0  0  0  0  0  0
   -0.2347    4.6103   -0.4380 N   0  0  0  0  0  0  0  0  0  0  0  0
   -3.2627   -1.1858   -0.5731 C   0  0  2  0  0  0  0  0  0  0  0  0
   -4.3150   -2.2299   -0.9484 C   0  0  0  0  0  0  0  0  0  0  0  0
   -2.2257   -1.7759    0.3918 C   0  0  0  0  0  0  0  0  0  0  0  0
   -3.6455   -3.5013   -1.4583 C   0  0  0  0  0  0  0  0  0  0  0  0
   -2.5962   -4.0121   -0.4701 C   0  0  0  0  0  0  0  0  0  0  0  0
   -0.5716   -3.4959    0.7282 C   0  0  0  0  0  0  0  0  0  0  0  0
   -3.3345    1.2126    0.1112 C   0  0  0  0  0  0  0  0  0  0  0  0
    0.6908   -2.6770    0.6761 C   0  0  0  0  0  0  0  0  0  0  0  0
   -2.0614    1.4193   -0.4349 C   0  0  0  0  0  0  0  0  0  0  0  0
   -4.0320    2.2563    0.7221 C   0  0  0  0  0  0  0  0  0  0  0  0
    0.9843   -1.7814    1.7042 C   0  0  0  0  0  0  0  0  0  0  0  0
    1.5676   -2.8154   -0.3999 C   0  0  0  0  0  0  0  0  0  0  0  0
   -1.4975    2.7036   -0.3551 C   0  0  0  0  0  0  0  0  0  0  0  0
   -2.2138    3.7250    0.2589 C   0  0  0  0  0  0  0  0  0  0  0  0
   -3.4840    3.5402    0.8093 C   0  0  0  0  0  0  0  0  0  0  0  0
    2.1546   -1.0239    1.6565 C   0  0  0  0  0  0  0  0  0  0  0  0
    2.7378   -2.0580   -0.4477 C   0  0  0  0  0  0  0  0  0  0  0  0
    3.0313   -1.1623    0.5806 C   0  0  0  0  0  0  0  0  0  0  0  0
   -0.2921    3.3160   -0.7598 C   0  0  0  0  0  0  0  0  0  0  0  0
    4.2303   -0.3862    0.5319 C   0  0  0  0  0  0  0  0  0  0  0  0
    5.2384    0.2656    0.4881 C   0  0  0  0  0  0  0  0  0  0  0  0
    6.4732    1.0622    0.4339 C   0  0  0  0  0  0  0  0  0  0  0  0
    6.7109    1.6265   -0.9601 C   0  0  0  0  0  0  0  0  0  0  0  0
   -2.7797   -0.8979   -1.5163 H   0  0  0  0  0  0  0  0  0  0  0  0
   -4.9358   -2.4738   -0.0761 H   0  0  0  0  0  0  0  0  0  0  0  0
   -4.9936   -1.8315   -1.7122 H   0  0  0  0  0  0  0  0  0  0  0  0
   -1.4659   -1.0212    0.6107 H   0  0  0  0  0  0  0  0  0  0  0  0
   -2.7073   -2.0131    1.3515 H   0  0  0  0  0  0  0  0  0  0  0  0
   -3.1718   -3.3021   -2.4280 H   0  0  0  0  0  0  0  0  0  0  0  0
   -4.4029   -4.2753   -1.6263 H   0  0  0  0  0  0  0  0  0  0  0  0
   -2.1089   -4.8861   -0.9191 H   0  0  0  0  0  0  0  0  0  0  0  0
   -3.0891   -4.3500    0.4511 H   0  0  0  0  0  0  0  0  0  0  0  0
   -0.2907   -4.5190    0.4404 H   0  0  0  0  0  0  0  0  0  0  0  0
   -0.9442   -3.5807    1.7583 H   0  0  0  0  0  0  0  0  0  0  0  0
   -4.7951   -0.1855    0.5127 H   0  0  0  0  0  0  0  0  0  0  0  0
   -1.4811    0.6485   -0.9265 H   0  0  0  0  0  0  0  0  0  0  0  0
   -5.0209    2.0837    1.1424 H   0  0  0  0  0  0  0  0  0  0  0  0
    0.3101   -1.6638    2.5484 H   0  0  0  0  0  0  0  0  0  0  0  0
    1.3499   -3.5099   -1.2070 H   0  0  0  0  0  0  0  0  0  0  0  0
   -4.0240    4.3521    1.2834 H   0  0  0  0  0  0  0  0  0  0  0  0
    2.3692   -0.3296    2.4655 H   0  0  0  0  0  0  0  0  0  0  0  0
    3.4113   -2.1769   -1.2931 H   0  0  0  0  0  0  0  0  0  0  0  0
    0.5469    2.8707   -1.2757 H   0  0  0  0  0  0  0  0  0  0  0  0
   -1.6024    5.7620    0.5193 H   0  0  0  0  0  0  0  0  0  0  0  0
    7.3169    0.4225    0.7183 H   0  0  0  0  0  0  0  0  0  0  0  0
    6.4191    1.8825    1.1577 H   0  0  0  0  0  0  0  0  0  0  0  0
    5.8712    2.2512   -1.2828 H   0  0  0  0  0  0  0  0  0  0  0  0
    7.6252    2.2281   -0.9737 H   0  0  0  0  0  0  0  0  0  0  0  0
    7.0143    0.9598   -2.7606 H   0  0  0  0  0  0  0  0  0  0  0  0
  1 28  1  0  0  0  0
  1 54  1  0  0  0  0
  2  8  1  0  0  0  0
  2 10  1  0  0  0  0
  2 11  1  0  0  0  0
  3  6  1  0  0  0  0
  3 12  1  0  0  0  0
  3 40  1  0  0  0  0
  4  5  1  0  0  0  0
  4 19  1  0  0  0  0
  4 49  1  0  0  0  0
  5 24  2  0  0  0  0
  6  7  1  0  0  0  0
  6  8  1  0  0  0  0
  6 29  1  0  0  0  0
  7  9  1  0  0  0  0
  7 30  1  0  0  0  0
  7 31  1  0  0  0  0
  8 32  1  0  0  0  0
  8 33  1  0  0  0  0
  9 10  1  0  0  0  0
  9 34  1  0  0  0  0
  9 35  1  0  0  0  0
 10 36  1  0  0  0  0
 10 37  1  0  0  0  0
 11 13  1  0  0  0  0
 11 38  1  0  0  0  0
 11 39  1  0  0  0  0
 12 14  2  0  0  0  0
 12 15  1  0  0  0  0
 13 16  2  0  0  0  0
 13 17  1  0  0  0  0
 14 18  1  0  0  0  0
 14 41  1  0  0  0  0
 15 20  2  0  0  0  0
 15 42  1  0  0  0  0
 16 21  1  0  0  0  0
 16 43  1  0  0  0  0
 17 22  2  0  0  0  0
 17 44  1  0  0  0  0
 18 19  2  0  0  0  0
 18 24  1  0  0  0  0
 19 20  1  0  0  0  0
 20 45  1  0  0  0  0
 21 23  2  0  0  0  0
 21 46  1  0  0  0  0
 22 23  1  0  0  0  0
 22 47  1  0  0  0  0
 23 25  1  0  0  0  0
 24 48  1  0  0  0  0
 25 26  3  0  0  0  0
 26 27  1  0  0  0  0
 27 28  1  0  0  0  0
 27 50  1  0  0  0  0
 27 51  1  0  0  0  0
 28 52  1  0  0  0  0
 28 53  1  0  0  0  0
M  END
> <PUBCHEM_COMPOUND_CID>
25008848

> <PUBCHEM_CONFORMER_RMSD>
1

> <PUBCHEM_CONFORMER_DIVERSEORDER>
1
30
75
121
17
129
143
43
148
123
150
171
112
115
144
93
95
96
131
141
128
181
178
87
32
114
183
60
11
31
126
24
82
54
152
72
52
124
120
175
88
58
14
13
142
49
76
84
164
25
184
135
163
179
185
73
119
74
180
134
42
90
138
173
64
40
51
45
170
27
36
172
151
149
161
85
122
159
146
53
69
22
117
63
65
162
80
137
140
154
166
158
100
168
139
182
44
99
165
21
81
116
83
145
176
79
26
125
113
157
92
147
68
57
94
169
155
109
56
177
130
23
91
34
167
2
59
110
37
55
8
41
101
156
47
35
20
3
160
108
67
105
9
29
153
71
61
136
48
89
106
10
50
5
62
38
15
70
18
111
19
174
127
33
98
66
28
132
104
97
6
118
78
86
39
16
7
46
107
77
4
12
102
133
103

> <PUBCHEM_MMFF94_PARTIAL_CHARGES>
36
1 -0.68
10 0.27
11 0.41
12 0.1
13 -0.14
14 -0.15
15 -0.15
16 -0.15
17 -0.15
19 -0.15
2 -0.81
20 -0.15
21 -0.15
22 -0.15
23 0.07
24 0.14
25 -0.07
26 -0.2
27 0.2
28 0.28
3 -0.87
4 0.3
40 0.4
41 0.15
42 0.15
43 0.15
44 0.15
45 0.15
46 0.15
47 0.15
48 0.15
49 0.27
5 -0.71
54 0.4
6 0.37
8 0.27

> <PUBCHEM_EFFECTIVE_ROTOR_COUNT>
6.2

> <PUBCHEM_PHARMACOPHORE_FEATURES>
11
1 1 acceptor
1 1 donor
1 2 cation
1 3 cation
1 3 donor
1 4 donor
1 5 acceptor
5 4 5 18 19 24 rings
6 12 14 15 18 19 20 rings
6 13 16 17 21 22 23 rings
6 2 6 7 8 9 10 rings

> <PUBCHEM_HEAVY_ATOM_COUNT>
28

> <PUBCHEM_ATOM_DEF_STEREO_COUNT>
0

> <PUBCHEM_ATOM_UDEF_STEREO_COUNT>
1

> <PUBCHEM_BOND_DEF_STEREO_COUNT>
0

> <PUBCHEM_BOND_UDEF_STEREO_COUNT>
0

> <PUBCHEM_ISOTOPIC_ATOM_COUNT>
0

> <PUBCHEM_COMPONENT_COUNT>
1

> <PUBCHEM_CACTVS_TAUTO_COUNT>
2

> <PUBCHEM_CONFORMER_ID>
017D9AD000000001

> <PUBCHEM_MMFF94_ENERGY>
57.8153

> <PUBCHEM_FEATURE_SELFOVERLAP>
55.913

> <PUBCHEM_SHAPE_FINGERPRINT>
10087517 78 18339070592814837266
10429389 16 18200051577089256206
10454371 7 18338527438803910012
10670039 82 18408605886025420998
10764073 3 12174193640349562973
10864689 126 18267302037381666104
10871710 139 18410569579048099819
10951579 204 18338812143986300788
1100329 8 18338232795330414119
11059048 146 17407402433964517752
11135609 187 18120076313831215893
11211813 163 18338528435357382134
11374522 363 17467627101445499836
11410812 94 18338818779837231188
11476731 118 17834398204947326716
11476731 47 16822755757637671581
11477941 20 18056750164555643902
12100795 323 17615118889502752181
12788726 201 18335971038975766402
12925494 130 16106133592246740193
13615921 28 18194108849183311375
14114211 80 17914342269114315337
14251764 75 18054797178269853129
14725015 67 15168828194720081078
151778 21 17332803851627676601
15326923 133 17914050065536782744
15351339 4 17684643616898816824
15876981 60 18263082287293572574
15961568 22 18340484568757461798
19611394 137 17898298461466803099
20765182 5 18408603695080682860
21796203 349 17973758992673726905
21859007 373 18272642494743921784
23516275 100 17765137763784368936
3610482 184 18187945975520913366
373842 8 17832978722234078416
437795 70 18339933735492000300
50677037 204 18335138752288110708
550186 7 18343869918099515854
6036956 94 18189895323147628117
6371009 1 17617629100492887299
6608658 132 18340475776912064158
6700243 42 17768846343516183518
7808743 9 18339918225753314522
9982175 49 17750251338548201732

> <PUBCHEM_SHAPE_MULTIPOLES>
550.43
12.26
7.07
1.26
25.43
4.34
-0.01
3.89
-3.46
-8.12
-0.63
0.8
-0.41
-2.54

> <PUBCHEM_SHAPE_SELFOVERLAP>
1181.744

> <PUBCHEM_SHAPE_VOLUME>
304

> <PUBCHEM_COORDINATE_TYPE>
2
5
10

$$$$
57446047
  -OEChem-05102415113D

 54 58  0     1  0  0  0  0  0999 V2000
   -1.8444   -2.9088   -0.0840 N   0  0  2  0  0  0  0  0  0  0  0  0
   -3.8998    0.1909    0.3124 N   0  0  0  0  0  0  0  0  0  0  0  0
   -1.0622    4.8658   -0.0149 N   0  0  0  0  0  0  0  0  0  0  0  0
    0.0095    4.5448   -0.7588 N   0  0  0  0  0  0  0  0  0  0  0  0
   -3.4165   -1.0102   -0.3367 C   0  0  2  0  0  0  0  0  0  0  0  0
   -4.5776   -1.9825   -0.5478 C   0  0  0  0  0  0  0  0  0  0  0  0
   -2.3136   -1.6513    0.5161 C   0  0  0  0  0  0  0  0  0  0  0  0
   -4.0667   -3.3123   -1.0913 C   0  0  0  0  0  0  0  0  0  0  0  0
   -2.9433   -3.8746   -0.2195 C   0  0  0  0  0  0  0  0  0  0  0  0
    6.4696    0.5353   -0.5747 C   0  0  0  0  0  0  0  0  0  0  0  0
    7.4416    0.6628    0.5614 C   0  0  0  0  0  0  0  0  0  0  0  0
    6.6845    1.8668    0.0830 C   0  0  0  0  0  0  0  0  0  0  0  0
   -0.7563   -3.4800    0.7094 C   0  0  0  0  0  0  0  0  0  0  0  0
    0.5447   -2.7583    0.4785 C   0  0  0  0  0  0  0  0  0  0  0  0
   -3.2349    1.4032    0.2704 C   0  0  0  0  0  0  0  0  0  0  0  0
    5.2268   -0.1585   -0.3531 C   0  0  0  0  0  0  0  0  0  0  0  0
    1.2708   -2.9861   -0.6906 C   0  0  0  0  0  0  0  0  0  0  0  0
    1.0240   -1.8619    1.4337 C   0  0  0  0  0  0  0  0  0  0  0  0
   -2.0266    1.5008   -0.4313 C   0  0  0  0  0  0  0  0  0  0  0  0
   -3.7757    2.5105    0.9265 C   0  0  0  0  0  0  0  0  0  0  0  0
    2.9552   -1.4208    0.0507 C   0  0  0  0  0  0  0  0  0  0  0  0
    4.1898   -0.7358   -0.1685 C   0  0  0  0  0  0  0  0  0  0  0  0
    2.4760   -2.3174   -0.9045 C   0  0  0  0  0  0  0  0  0  0  0  0
    2.2293   -1.1933    1.2198 C   0  0  0  0  0  0  0  0  0  0  0  0
   -1.3669    2.7407   -0.4621 C   0  0  0  0  0  0  0  0  0  0  0  0
   -1.9276    3.8273    0.1998 C   0  0  0  0  0  0  0  0  0  0  0  0
   -3.1307    3.7514    0.9049 C   0  0  0  0  0  0  0  0  0  0  0  0
   -0.1793    3.2512   -1.0289 C   0  0  0  0  0  0  0  0  0  0  0  0
   -3.0332   -0.7824   -1.3402 H   0  0  0  0  0  0  0  0  0  0  0  0
   -5.3146   -1.5540   -1.2377 H   0  0  0  0  0  0  0  0  0  0  0  0
   -5.1029   -2.1580    0.4004 H   0  0  0  0  0  0  0  0  0  0  0  0
   -1.4815   -0.9497    0.6169 H   0  0  0  0  0  0  0  0  0  0  0  0
   -2.6900   -1.8282    1.5341 H   0  0  0  0  0  0  0  0  0  0  0  0
   -4.8916   -4.0320   -1.1412 H   0  0  0  0  0  0  0  0  0  0  0  0
   -3.7020   -3.1727   -2.1169 H   0  0  0  0  0  0  0  0  0  0  0  0
   -3.3426   -4.1521    0.7650 H   0  0  0  0  0  0  0  0  0  0  0  0
   -2.5771   -4.7932   -0.6941 H   0  0  0  0  0  0  0  0  0  0  0  0
    6.8981    0.4116   -1.5644 H   0  0  0  0  0  0  0  0  0  0  0  0
    7.1774    0.2558    1.5302 H   0  0  0  0  0  0  0  0  0  0  0  0
    8.4986    0.6079    0.3298 H   0  0  0  0  0  0  0  0  0  0  0  0
    7.2333    2.6200   -0.4696 H   0  0  0  0  0  0  0  0  0  0  0  0
    5.9135    2.2656    0.7316 H   0  0  0  0  0  0  0  0  0  0  0  0
   -0.5852   -4.5279    0.4244 H   0  0  0  0  0  0  0  0  0  0  0  0
   -1.0053   -3.5114    1.7790 H   0  0  0  0  0  0  0  0  0  0  0  0
   -4.7311    0.1279    0.8900 H   0  0  0  0  0  0  0  0  0  0  0  0
    0.9076   -3.6820   -1.4423 H   0  0  0  0  0  0  0  0  0  0  0  0
    0.4684   -1.6749    2.3488 H   0  0  0  0  0  0  0  0  0  0  0  0
   -1.5674    0.6774   -0.9637 H   0  0  0  0  0  0  0  0  0  0  0  0
   -4.7152    2.4225    1.4685 H   0  0  0  0  0  0  0  0  0  0  0  0
    3.0303   -2.5054   -1.8209 H   0  0  0  0  0  0  0  0  0  0  0  0
    2.5895   -0.4971    1.9736 H   0  0  0  0  0  0  0  0  0  0  0  0
   -3.5491    4.6125    1.4138 H   0  0  0  0  0  0  0  0  0  0  0  0
    0.5560    2.7321   -1.6274 H   0  0  0  0  0  0  0  0  0  0  0  0
   -1.1447    5.8183    0.3181 H   0  0  0  0  0  0  0  0  0  0  0  0
  1  7  1  0  0  0  0
  1  9  1  0  0  0  0
  1 13  1  0  0  0  0
  2  5  1  0  0  0  0
  2 15  1  0  0  0  0
  2 45  1  0  0  0  0
  3  4  1  0  0  0  0
  3 26  1  0  0  0  0
  3 54  1  0  0  0  0
  4 28  2  0  0  0  0
  5  6  1  0  0  0  0
  5  7  1  0  0  0  0
  5 29  1  0  0  0  0
  6  8  1  0  0  0  0
  6 30  1  0  0  0  0
  6 31  1  0  0  0  0
  7 32  1  0  0  0  0
  7 33  1  0  0  0  0
  8  9  1  0  0  0  0
  8 34  1  0  0  0  0
  8 35  1  0  0  0  0
  9 36  1  0  0  0  0
  9 37  1  0  0  0  0
 10 11  1  0  0  0  0
 10 12  1  0  0  0  0
 10 16  1  0  0  0  0
 10 38  1  0  0  0  0
 11 12  1  0  0  0  0
 11 39  1  0  0  0  0
 11 40  1  0  0  0  0
 12 41  1  0  0  0  0
 12 42  1  0  0  0  0
 13 14  1  0  0  0  0
 13 43  1  0  0  0  0
 13 44  1  0  0  0  0
 14 17  2  0  0  0  0
 14 18  1  0  0  0  0
 15 19  2  0  0  0  0
 15 20  1  0  0  0  0
 16 22  3  0  0  0  0
 17 23  1  0  0  0  0
 17 46  1  0  0  0  0
 18 24  2  0  0  0  0
 18 47  1  0  0  0  0
 19 25  1  0  0  0  0
 19 48  1  0  0  0  0
 20 27  2  0  0  0  0
 20 49  1  0  0  0  0
 21 22  1  0  0  0  0
 21 23  2  0  0  0  0
 21 24  1  0  0  0  0
 23 50  1  0  0  0  0
 24 51  1  0  0  0  0
 25 26  2  0  0  0  0
 25 28  1  0  0  0  0
 26 27  1  0  0  0  0
 27 52  1  0  0  0  0
 28 53  1  0  0  0  0
M  END
> <PUBCHEM_COMPOUND_CID>
57446047

> <PUBCHEM_CONFORMER_RMSD>
0.8

> <PUBCHEM_CONFORMER_DIVERSEORDER>
1
223
135
204
189
131
171
172
168
12
7
74
239
123
222
159
148
61
48
151
167
94
181
154
88
213
134
56
208
145
179
109
190
196
102
147
199
175
225
216
105
37
70
43
89
130
166
205
46
80
119
93
184
137
34
170
224
142
183
76
165
115
219
79
67
238
73
82
197
38
153
174
198
96
98
14
187
150
49
111
100
215
234
101
117
133
206
132
235
5
233
161
210
186
120
185
143
86
75
139
227
81
33
110
182
218
28
106
30
40
141
58
53
160
240
26
212
103
18
64
236
229
136
194
214
27
158
164
237
228
177
87
77
32
21
52
202
230
99
83
63
47
104
125
169
122
231
129
211
13
178
113
92
188
232
146
217
97
157
39
23
203
66
173
152
162
9
140
90
116
163
144
25
209
24
29
19
193
50
41
107
226
31
192
156
114
176
55
241
149
118
220
195
69
59
68
42
201
155
45
200
15
11
22
91
20
127
71
112
207
51
2
108
6
121
191
44
36
221
57
124
126
95
3
16
62
138
65
17
54
10
180
128
8
72
85
4
60
78
84
35

> <PUBCHEM_MMFF94_PARTIAL_CHARGES>
39
1 -0.81
11 -0.2
12 -0.2
13 0.41
14 -0.14
15 0.1
16 -0.1
17 -0.15
18 -0.15
19 -0.15
2 -0.87
20 -0.15
21 0.07
22 -0.07
23 -0.15
24 -0.15
26 -0.15
27 -0.15
28 0.14
3 0.3
38 0.1
39 0.1
4 -0.71
40 0.1
41 0.1
42 0.1
45 0.4
46 0.15
47 0.15
48 0.15
49 0.15
5 0.37
50 0.15
51 0.15
52 0.15
53 0.15
54 0.27
7 0.27
9 0.27

> <PUBCHEM_EFFECTIVE_ROTOR_COUNT>
5.8

> <PUBCHEM_PHARMACOPHORE_FEATURES>
9
1 1 cation
1 2 cation
1 2 donor
1 3 donor
1 4 acceptor
5 3 4 25 26 28 rings
6 1 5 6 7 8 9 rings
6 14 17 18 21 23 24 rings
6 15 19 20 25 26 27 rings

> <PUBCHEM_HEAVY_ATOM_COUNT>
28

> <PUBCHEM_ATOM_DEF_STEREO_COUNT>
0

> <PUBCHEM_ATOM_UDEF_STEREO_COUNT>
1

> <PUBCHEM_BOND_DEF_STEREO_COUNT>
0

> <PUBCHEM_BOND_UDEF_STEREO_COUNT>
0

> <PUBCHEM_ISOTOPIC_ATOM_COUNT>
0

> <PUBCHEM_COMPONENT_COUNT>
1

> <PUBCHEM_CACTVS_TAUTO_COUNT>
2

> <PUBCHEM_CONFORMER_ID>
036C8E9F00000001

> <PUBCHEM_MMFF94_ENERGY>
63.2671

> <PUBCHEM_FEATURE_SELFOVERLAP>
45.763

> <PUBCHEM_SHAPE_FINGERPRINT>
100830 39 18409446986877770856
10087517 78 18411134775306301178
10670039 82 18410287034814313258
10864689 126 18121788227575987140
10871710 139 18410573951435609323
10951579 204 18338817628627694636
1100329 8 18337960099277341015
11135609 187 18119237377848208741
11211813 163 18121518877566214670
11410812 94 18194149407798853518
11476731 118 17906737261066429488
11476731 47 16677517955310209845
11477941 20 18057876047098117990
12788726 201 18335693949144912147
13561361 72 18267009726344730520
14114211 80 17842566137226211985
14251764 75 17983024340584723009
14394314 77 18410015425325207969
14790565 3 17764877896518397153
151778 21 17187287868552864033
15419008 145 18337375116563782512
15419008 47 18058729259958339474
155225 5 18411702054687367016
15721738 15 16025618576659371676
15876981 60 18263363757811935038
15961568 22 18411981403312232150
16992787 43 18265326215334706285
18336668 15 17968094295302287039
19611394 137 17826523450364729843
20764821 26 18191042285642265412
20765182 5 18409168822392495788
20771845 165 18272385187127219230
21795232 40 18114449107302845133
21859007 373 18343580747337728710
373842 8 17977100485931133964
5047190 69 18341886442632005824
50677037 204 18410293635899550028
550186 7 18343310258164922358
6036956 94 18260274048512809516
653340 110 18411416207512686884
6608658 132 18340476863491401742
6700243 42 17696793143203451678
7808743 9 18339641140312288594

> <PUBCHEM_SHAPE_MULTIPOLES>
556.3
12.9
7.14
1.05
28.34
5.25
0.1
2.29
-0.33
-7.92
-0.56
-0.05
-0.15
-1.26

> <PUBCHEM_SHAPE_SELFOVERLAP>
1206.089

> <PUBCHEM_SHAPE_VOLUME>
302

> <PUBCHEM_COORDINATE_TYPE>
2
5
10

$$$$
57446048
  -OEChem-05102415113D

 45 48  0     1  0  0  0  0  0999 V2000
   -1.1509   -4.0941    1.9344 Br  0  0  0  0  0  0  0  0  0  0  0  0
   -2.4698    1.5461   -0.0938 N   0  0  2  0  0  0  0  0  0  0  0  0
    1.0944    2.5197    0.4879 N   0  0  0  0  0  0  0  0  0  0  0  0
    4.7089   -1.5384   -0.2050 N   0  0  0  0  0  0  0  0  0  0  0  0
    4.0974   -2.3771   -1.0579 N   0  0  0  0  0  0  0  0  0  0  0  0
   -0.1821    2.4928   -0.1957 C   0  0  2  0  0  0  0  0  0  0  0  0
   -0.7567    3.9081   -0.2664 C   0  0  0  0  0  0  0  0  0  0  0  0
   -1.1426    1.5480    0.5388 C   0  0  0  0  0  0  0  0  0  0  0  0
   -2.1665    3.8822   -0.8465 C   0  0  0  0  0  0  0  0  0  0  0  0
   -3.0585    2.8923   -0.0964 C   0  0  0  0  0  0  0  0  0  0  0  0
   -3.3580    0.6007    0.5824 C   0  0  0  0  0  0  0  0  0  0  0  0
    2.0520    1.5300    0.3586 C   0  0  0  0  0  0  0  0  0  0  0  0
   -3.0549   -0.8240    0.2016 C   0  0  0  0  0  0  0  0  0  0  0  0
    1.7979    0.4316   -0.4724 C   0  0  0  0  0  0  0  0  0  0  0  0
    3.2562    1.6388    1.0566 C   0  0  0  0  0  0  0  0  0  0  0  0
   -2.3649   -1.6517    1.0874 C   0  0  0  0  0  0  0  0  0  0  0  0
   -3.4651   -1.3165   -1.0375 C   0  0  0  0  0  0  0  0  0  0  0  0
    2.7832   -0.5629   -0.5903 C   0  0  0  0  0  0  0  0  0  0  0  0
    3.9734   -0.4295    0.1158 C   0  0  0  0  0  0  0  0  0  0  0  0
    4.2467    0.6571    0.9494 C   0  0  0  0  0  0  0  0  0  0  0  0
   -2.0854   -2.9719    0.7344 C   0  0  0  0  0  0  0  0  0  0  0  0
   -3.1853   -2.6366   -1.3905 C   0  0  0  0  0  0  0  0  0  0  0  0
    2.9260   -1.7803   -1.2900 C   0  0  0  0  0  0  0  0  0  0  0  0
   -2.4956   -3.4644   -0.5046 C   0  0  0  0  0  0  0  0  0  0  0  0
   -0.0583    2.1697   -1.2378 H   0  0  0  0  0  0  0  0  0  0  0  0
   -0.7869    4.3561    0.7357 H   0  0  0  0  0  0  0  0  0  0  0  0
   -0.1122    4.5524   -0.8765 H   0  0  0  0  0  0  0  0  0  0  0  0
   -0.7253    0.5377    0.5393 H   0  0  0  0  0  0  0  0  0  0  0  0
   -1.2204    1.8478    1.5940 H   0  0  0  0  0  0  0  0  0  0  0  0
   -2.6044    4.8856   -0.7970 H   0  0  0  0  0  0  0  0  0  0  0  0
   -2.1208    3.6057   -1.9075 H   0  0  0  0  0  0  0  0  0  0  0  0
   -3.2245    3.2476    0.9293 H   0  0  0  0  0  0  0  0  0  0  0  0
   -4.0342    2.8727   -0.5971 H   0  0  0  0  0  0  0  0  0  0  0  0
   -4.4025    0.7842    0.2929 H   0  0  0  0  0  0  0  0  0  0  0  0
   -3.3365    0.7308    1.6731 H   0  0  0  0  0  0  0  0  0  0  0  0
    1.2712    3.2640    1.1539 H   0  0  0  0  0  0  0  0  0  0  0  0
    0.8862    0.3013   -1.0419 H   0  0  0  0  0  0  0  0  0  0  0  0
    3.4424    2.4970    1.6993 H   0  0  0  0  0  0  0  0  0  0  0  0
   -2.0462   -1.2653    2.0528 H   0  0  0  0  0  0  0  0  0  0  0  0
   -4.0032   -0.6816   -1.7364 H   0  0  0  0  0  0  0  0  0  0  0  0
    5.1826    0.7399    1.4907 H   0  0  0  0  0  0  0  0  0  0  0  0
   -3.5044   -3.0199   -2.3553 H   0  0  0  0  0  0  0  0  0  0  0  0
    2.2233   -2.2564   -1.9592 H   0  0  0  0  0  0  0  0  0  0  0  0
    5.6349   -1.7823    0.1235 H   0  0  0  0  0  0  0  0  0  0  0  0
   -2.2856   -4.4905   -0.7953 H   0  0  0  0  0  0  0  0  0  0  0  0
  1 21  1  0  0  0  0
  2  8  1  0  0  0  0
  2 10  1  0  0  0  0
  2 11  1  0  0  0  0
  3  6  1  0  0  0  0
  3 12  1  0  0  0  0
  3 36  1  0  0  0  0
  4  5  1  0  0  0  0
  4 19  1  0  0  0  0
  4 44  1  0  0  0  0
  5 23  2  0  0  0  0
  6  7  1  0  0  0  0
  6  8  1  0  0  0  0
  6 25  1  0  0  0  0
  7  9  1  0  0  0  0
  7 26  1  0  0  0  0
  7 27  1  0  0  0  0
  8 28  1  0  0  0  0
  8 29  1  0  0  0  0
  9 10  1  0  0  0  0
  9 30  1  0  0  0  0
  9 31  1  0  0  0  0
 10 32  1  0  0  0  0
 10 33  1  0  0  0  0
 11 13  1  0  0  0  0
 11 34  1  0  0  0  0
 11 35  1  0  0  0  0
 12 14  2  0  0  0  0
 12 15  1  0  0  0  0
 13 16  2  0  0  0  0
 13 17  1  0  0  0  0
 14 18  1  0  0  0  0
 14 37  1  0  0  0  0
 15 20  2  0  0  0  0
 15 38  1  0  0  0  0
 16 21  1  0  0  0  0
 16 39  1  0  0  0  0
 17 22  2  0  0  0  0
 17 40  1  0  0  0  0
 18 19  2  0  0  0  0
 18 23  1  0  0  0  0
 19 20  1  0  0  0  0
 20 41  1  0  0  0  0
 21 24  2  0  0  0  0
 22 24  1  0  0  0  0
 22 42  1  0  0  0  0
 23 43  1  0  0  0  0
 24 45  1  0  0  0  0
M  END
> <PUBCHEM_COMPOUND_CID>
57446048

> <PUBCHEM_CONFORMER_RMSD>
0.8

> <PUBCHEM_CONFORMER_DIVERSEORDER>
1
272
358
247
250
211
83
298
93
14
139
260
189
215
335
140
134
144
154
103
257
43
127
198
48
344
241
185
315
179
331
195
288
136
209
181
352
76
226
279
345
275
293
5
163
296
135
225
300
60
75
244
292
251
219
119
161
284
261
287
117
102
330
167
230
53
73
229
204
210
45
87
340
178
253
98
283
256
325
351
233
99
280
162
299
294
314
347
124
192
30
303
56
188
341
152
150
227
348
111
252
223
80
277
120
36
104
265
286
145
122
308
201
333
248
216
334
328
112
172
208
49
269
327
339
7
278
81
228
72
157
321
44
61
238
273
202
346
326
62
212
191
155
264
311
168
4
282
54
57
35
222
177
234
323
92
12
187
203
32
116
82
110
199
332
146
263
304
255
71
64
281
126
27
183
310
143
305
95
258
132
193
268
336
156
307
91
70
22
214
23
271
46
173
148
262
66
25
274
109
125
31
242
224
171
354
6
245
289
137
343
47
180
9
175
41
52
100
11
67
217
174
291
317
290
19
186
151
38
8
353
329
309
324
20
231
166
356
65
190
2
239
267
306
318
97
121
153
88
301
89
34
221
138
131
17
58
312
86
159
85
295
196
170
77
249
359
270
164
78
84
240
114
160
113
200
285
128
106
342
165
21
133
69
94
169
50
51
355
302
105
237
13
3
29
123
337
276
107
141
197
246
220
176
42
96
205
115
194
184
63
235
147
316
254
357
349
33
28
297
68
118
149
182
236
232
40
218
158
338
90
37
79
74
142
207
206
313
130
108
213
18
16
26
320
55
266
10
350
319
15
322
24
59
39
243
129
259
101

> <PUBCHEM_MMFF94_PARTIAL_CHARGES>
31
1 -0.11
10 0.27
11 0.41
12 0.1
13 -0.14
14 -0.15
15 -0.15
16 -0.15
17 -0.15
19 -0.15
2 -0.81
20 -0.15
21 0.11
22 -0.15
23 0.14
24 -0.15
3 -0.87
36 0.4
37 0.15
38 0.15
39 0.15
4 0.3
40 0.15
41 0.15
42 0.15
43 0.15
44 0.27
45 0.15
5 -0.71
6 0.37
8 0.27

> <PUBCHEM_EFFECTIVE_ROTOR_COUNT>
5.2

> <PUBCHEM_PHARMACOPHORE_FEATURES>
10
1 1 hydrophobe
1 2 cation
1 3 cation
1 3 donor
1 4 donor
1 5 acceptor
5 4 5 18 19 23 rings
6 12 14 15 18 19 20 rings
6 13 16 17 21 22 24 rings
6 2 6 7 8 9 10 rings

> <PUBCHEM_HEAVY_ATOM_COUNT>
24

> <PUBCHEM_ATOM_DEF_STEREO_COUNT>
0

> <PUBCHEM_ATOM_UDEF_STEREO_COUNT>
1

> <PUBCHEM_BOND_DEF_STEREO_COUNT>
0

> <PUBCHEM_BOND_UDEF_STEREO_COUNT>
0

> <PUBCHEM_ISOTOPIC_ATOM_COUNT>
0

> <PUBCHEM_COMPONENT_COUNT>
1

> <PUBCHEM_CACTVS_TAUTO_COUNT>
2

> <PUBCHEM_CONFORMER_ID>
036C8EA000000001

> <PUBCHEM_MMFF94_ENERGY>
56.7983

> <PUBCHEM_FEATURE_SELFOVERLAP>
50.837

> <PUBCHEM_SHAPE_FINGERPRINT>
107951 10 17243879856662776513
1100329 8 17471571027762542946
11552529 35 17775003526446392617
12156800 1 16262853848121337159
12202916 173 17905860902247103178
12422481 6 18126596525257564179
12553582 1 18120949544446735237
13122387 1 17402903219387934310
13402501 40 18198911313840759575
1361 2 15672386906628997083
138480 1 16105012090469790781
14251757 5 18193864594577959718
14363568 33 17328045654776011216
14659021 117 18336816563738993682
14725015 67 18410572855918651939
15927050 60 17692247440333534709
17627616 140 17541946386089687387
17859628 97 18048885095809938065
19141452 34 18343304764886055809
19315092 285 16124703798526448823
19930381 70 17691123060322797359
20775530 9 18269278022235703683
23559900 14 18197205069500772553
3298306 158 17687744935336671133
445580 102 17398674987283178211
469060 322 17340085208331858484
5265222 85 17975439935367518196
5309563 4 17473270245784486339
550186 72 18265049318339919868
613672 6 18121486118858617299
7987 15 17682975648969242539
9709674 26 18413386536169868608

> <PUBCHEM_SHAPE_MULTIPOLES>
479.93
8.34
5.91
1.32
6.63
1.49
0.11
-4.69
-0.75
-4.38
0.23
-0.23
-1.19
1.41

> <PUBCHEM_SHAPE_SELFOVERLAP>
1027.479

> <PUBCHEM_SHAPE_VOLUME>
271.6

> <PUBCHEM_COORDINATE_TYPE>
2
5
10

$$$$
57446049
  -OEChem-05102415113D

 46 49  0     1  0  0  0  0  0999 V2000
   -1.4269   -3.7487    1.6796 O   0  0  0  0  0  0  0  0  0  0  0  0
   -2.4472    1.5508   -0.1077 N   0  0  2  0  0  0  0  0  0  0  0  0
    1.1247    2.5059    0.4574 N   0  0  0  0  0  0  0  0  0  0  0  0
    4.7065   -1.5929   -0.1624 N   0  0  0  0  0  0  0  0  0  0  0  0
    4.0883   -2.4416   -1.0004 N   0  0  0  0  0  0  0  0  0  0  0  0
   -0.1519    2.4771   -0.2259 C   0  0  2  0  0  0  0  0  0  0  0  0
   -0.7150    3.8955   -0.3219 C   0  0  0  0  0  0  0  0  0  0  0  0
   -1.1201    1.5533    0.5251 C   0  0  0  0  0  0  0  0  0  0  0  0
   -2.1250    3.8707   -0.9017 C   0  0  0  0  0  0  0  0  0  0  0  0
   -3.0250    2.9015   -0.1343 C   0  0  0  0  0  0  0  0  0  0  0  0
   -3.3430    0.6249    0.5850 C   0  0  0  0  0  0  0  0  0  0  0  0
    2.0743    1.5064    0.3460 C   0  0  0  0  0  0  0  0  0  0  0  0
   -3.0513   -0.8088    0.2297 C   0  0  0  0  0  0  0  0  0  0  0  0
    1.8114    0.3954   -0.4654 C   0  0  0  0  0  0  0  0  0  0  0  0
    3.2793    1.6179    1.0422 C   0  0  0  0  0  0  0  0  0  0  0  0
   -2.3668   -1.6250    1.1301 C   0  0  0  0  0  0  0  0  0  0  0  0
   -3.4651   -1.3208   -1.0002 C   0  0  0  0  0  0  0  0  0  0  0  0
    2.7887   -0.6088   -0.5654 C   0  0  0  0  0  0  0  0  0  0  0  0
    3.9799   -0.4726    0.1385 C   0  0  0  0  0  0  0  0  0  0  0  0
    4.2619    0.6265    0.9527 C   0  0  0  0  0  0  0  0  0  0  0  0
   -2.0959   -2.9531    0.8009 C   0  0  0  0  0  0  0  0  0  0  0  0
   -3.1940   -2.6489   -1.3296 C   0  0  0  0  0  0  0  0  0  0  0  0
    2.9218   -1.8396   -1.2433 C   0  0  0  0  0  0  0  0  0  0  0  0
   -2.5096   -3.4651   -0.4290 C   0  0  0  0  0  0  0  0  0  0  0  0
   -0.0306    2.1346   -1.2620 H   0  0  0  0  0  0  0  0  0  0  0  0
   -0.7417    4.3615    0.6721 H   0  0  0  0  0  0  0  0  0  0  0  0
   -0.0653    4.5237   -0.9432 H   0  0  0  0  0  0  0  0  0  0  0  0
   -0.7108    0.5400    0.5437 H   0  0  0  0  0  0  0  0  0  0  0  0
   -1.1955    1.8724    1.5748 H   0  0  0  0  0  0  0  0  0  0  0  0
   -2.5548    4.8783   -0.8701 H   0  0  0  0  0  0  0  0  0  0  0  0
   -2.0814    3.5750   -1.9577 H   0  0  0  0  0  0  0  0  0  0  0  0
   -3.1882    3.2763    0.8848 H   0  0  0  0  0  0  0  0  0  0  0  0
   -4.0008    2.8808   -0.6348 H   0  0  0  0  0  0  0  0  0  0  0  0
   -4.3860    0.8116    0.2920 H   0  0  0  0  0  0  0  0  0  0  0  0
   -3.3205    0.7740    1.6732 H   0  0  0  0  0  0  0  0  0  0  0  0
    1.3075    3.2605    1.1101 H   0  0  0  0  0  0  0  0  0  0  0  0
    0.8988    0.2624   -1.0328 H   0  0  0  0  0  0  0  0  0  0  0  0
    3.4724    2.4859    1.6696 H   0  0  0  0  0  0  0  0  0  0  0  0
   -2.0407   -1.2331    2.0905 H   0  0  0  0  0  0  0  0  0  0  0  0
   -3.9989   -0.6948   -1.7105 H   0  0  0  0  0  0  0  0  0  0  0  0
    5.1983    0.7113    1.4926 H   0  0  0  0  0  0  0  0  0  0  0  0
   -3.5157   -3.0473   -2.2873 H   0  0  0  0  0  0  0  0  0  0  0  0
    2.2154   -2.3219   -1.9042 H   0  0  0  0  0  0  0  0  0  0  0  0
   -2.3044   -4.4979   -0.6976 H   0  0  0  0  0  0  0  0  0  0  0  0
    5.6305   -1.8384    0.1707 H   0  0  0  0  0  0  0  0  0  0  0  0
   -1.3257   -4.6337    1.2890 H   0  0  0  0  0  0  0  0  0  0  0  0
  1 21  1  0  0  0  0
  1 46  1  0  0  0  0
  2  8  1  0  0  0  0
  2 10  1  0  0  0  0
  2 11  1  0  0  0  0
  3  6  1  0  0  0  0
  3 12  1  0  0  0  0
  3 36  1  0  0  0  0
  4  5  1  0  0  0  0
  4 19  1  0  0  0  0
  4 45  1  0  0  0  0
  5 23  2  0  0  0  0
  6  7  1  0  0  0  0
  6  8  1  0  0  0  0
  6 25  1  0  0  0  0
  7  9  1  0  0  0  0
  7 26  1  0  0  0  0
  7 27  1  0  0  0  0
  8 28  1  0  0  0  0
  8 29  1  0  0  0  0
  9 10  1  0  0  0  0
  9 30  1  0  0  0  0
  9 31  1  0  0  0  0
 10 32  1  0  0  0  0
 10 33  1  0  0  0  0
 11 13  1  0  0  0  0
 11 34  1  0  0  0  0
 11 35  1  0  0  0  0
 12 14  2  0  0  0  0
 12 15  1  0  0  0  0
 13 16  2  0  0  0  0
 13 17  1  0  0  0  0
 14 18  1  0  0  0  0
 14 37  1  0  0  0  0
 15 20  2  0  0  0  0
 15 38  1  0  0  0  0
 16 21  1  0  0  0  0
 16 39  1  0  0  0  0
 17 22  2  0  0  0  0
 17 40  1  0  0  0  0
 18 19  2  0  0  0  0
 18 23  1  0  0  0  0
 19 20  1  0  0  0  0
 20 41  1  0  0  0  0
 21 24  2  0  0  0  0
 22 24  1  0  0  0  0
 22 42  1  0  0  0  0
 23 43  1  0  0  0  0
 24 44  1  0  0  0  0
M  END
> <PUBCHEM_COMPOUND_CID>
57446049

> <PUBCHEM_CONFORMER_RMSD>
0.8

> <PUBCHEM_CONFORMER_DIVERSEORDER>
1
135
250
311
191
47
318
327
58
278
210
328
185
197
195
102
280
283
169
330
98
96
202
291
223
240
30
187
133
316
208
71
76
4
315
131
200
11
188
279
201
295
248
171
49
64
112
206
164
90
303
13
35
325
267
290
116
247
19
174
235
97
294
46
211
181
282
213
111
127
168
129
142
323
252
230
212
272
237
329
43
286
288
219
138
173
108
9
126
150
151
33
29
338
128
292
304
72
254
238
87
284
234
182
281
214
16
196
289
55
178
63
152
246
117
79
154
189
148
274
297
326
207
245
51
231
77
339
199
78
336
332
313
255
5
308
130
99
34
177
42
40
249
306
115
209
12
139
83
92
258
89
86
269
32
106
236
229
302
170
309
205
227
293
190
95
85
340
7
320
270
74
324
215
322
233
312
242
253
23
305
222
275
107
158
70
159
307
300
160
65
285
263
321
54
121
184
69
257
251
67
180
132
36
194
262
94
39
203
256
50
6
337
335
276
8
310
161
265
296
162
317
273
172
155
244
41
298
93
319
120
10
287
241
186
220
80
149
136
113
218
105
179
271
27
261
144
224
156
44
175
68
2
109
103
147
145
266
38
100
228
81
193
232
204
75
101
301
15
14
146
260
57
114
137
314
88
243
56
28
141
217
20
91
53
59
226
216
334
3
192
21
125
84
61
22
48
124
259
62
143
123
268
163
110
299
331
119
225
166
165
122
118
66
82
26
60
183
333
167
153
176
157
198
31
264
18
221
17
239
277
140
73
52
25
37
134
24
104
45

> <PUBCHEM_MMFF94_PARTIAL_CHARGES>
32
1 -0.53
10 0.27
11 0.41
12 0.1
13 -0.14
14 -0.15
15 -0.15
16 -0.15
17 -0.15
19 -0.15
2 -0.81
20 -0.15
21 0.08
22 -0.15
23 0.14
24 -0.15
3 -0.87
36 0.4
37 0.15
38 0.15
39 0.15
4 0.3
40 0.15
41 0.15
42 0.15
43 0.15
44 0.15
45 0.27
46 0.45
5 -0.71
6 0.37
8 0.27

> <PUBCHEM_EFFECTIVE_ROTOR_COUNT>
5.2

> <PUBCHEM_PHARMACOPHORE_FEATURES>
10
1 1 donor
1 2 cation
1 3 cation
1 3 donor
1 4 donor
1 5 acceptor
5 4 5 18 19 23 rings
6 12 14 15 18 19 20 rings
6 13 16 17 21 22 24 rings
6 2 6 7 8 9 10 rings

> <PUBCHEM_HEAVY_ATOM_COUNT>
24

> <PUBCHEM_ATOM_DEF_STEREO_COUNT>
0

> <PUBCHEM_ATOM_UDEF_STEREO_COUNT>
1

> <PUBCHEM_BOND_DEF_STEREO_COUNT>
0

> <PUBCHEM_BOND_UDEF_STEREO_COUNT>
0

> <PUBCHEM_ISOTOPIC_ATOM_COUNT>
0

> <PUBCHEM_COMPONENT_COUNT>
1

> <PUBCHEM_CACTVS_TAUTO_COUNT>
6

> <PUBCHEM_CONFORMER_ID>
036C8EA100000001

> <PUBCHEM_MMFF94_ENERGY>
58.0948

> <PUBCHEM_FEATURE_SELFOVERLAP>
50.838

> <PUBCHEM_SHAPE_FINGERPRINT>
107951 10 17171823357830933593
1100329 8 17399793800531139514
11552529 35 17846779645491779161
12156800 1 16262852744325259135
12422481 6 18126315045980611491
12553582 1 18193008233701343149
13122387 1 17402621748716746942
13402501 40 18198348363887351231
1361 2 15744444492171896915
138480 1 16104729515976158101
14251757 5 18193863486481659110
14363568 33 17400103235934363992
14659021 117 18337377306015908258
17627616 140 17542226761618054243
19141452 34 18343023289898789169
19315092 285 16196477709926938271
19930381 70 17690840485839720679
20775530 9 18269278022235703707
23559900 14 18196924689709086865
3298306 158 17615686233186696357
445580 102 17470733676543047875
469060 322 17339522254104581836
5265222 85 17903382332744956420
5309563 4 17617665800740778187
550186 72 18264767843379027004
613672 6 18121485015094226691
9709674 26 18413105065493374032

> <PUBCHEM_SHAPE_MULTIPOLES>
468.12
8.49
5.55
1.2
6.88
1.38
0.06
-4.77
-0.33
-4.41
-0.58
-0.18
-0.72
1.4

> <PUBCHEM_SHAPE_SELFOVERLAP>
1019.455

> <PUBCHEM_SHAPE_VOLUME>
255.8

> <PUBCHEM_COORDINATE_TYPE>
2
5
10

$$$$
57446050
  -OEChem-05102415113D

 47 50  0     1  0  0  0  0  0999 V2000
   -2.2802    1.9166   -0.0744 N   0  0  2  0  0  0  0  0  0  0  0  0
    1.3417    2.5533    0.6085 N   0  0  0  0  0  0  0  0  0  0  0  0
    4.6284   -1.7247   -0.3454 N   0  0  0  0  0  0  0  0  0  0  0  0
    3.9642   -2.4475   -1.2625 N   0  0  0  0  0  0  0  0  0  0  0  0
    0.0774    2.6793   -0.0866 C   0  0  2  0  0  0  0  0  0  0  0  0
   -0.3804    4.1380   -0.0593 C   0  0  0  0  0  0  0  0  0  0  0  0
   -0.9667    1.7653    0.5685 C   0  0  0  0  0  0  0  0  0  0  0  0
   -1.7790    4.2684   -0.6523 C   0  0  0  0  0  0  0  0  0  0  0  0
   -2.7587    3.3029    0.0158 C   0  0  0  0  0  0  0  0  0  0  0  0
   -3.2514    1.0004    0.5232 C   0  0  0  0  0  0  0  0  0  0  0  0
    2.2185    1.5009    0.4162 C   0  0  0  0  0  0  0  0  0  0  0  0
   -3.0581   -0.4133    0.0425 C   0  0  0  0  0  0  0  0  0  0  0  0
    1.8893    0.4893   -0.4948 C   0  0  0  0  0  0  0  0  0  0  0  0
    3.4171    1.4612    1.1310 C   0  0  0  0  0  0  0  0  0  0  0  0
   -2.4507   -1.3564    0.8715 C   0  0  0  0  0  0  0  0  0  0  0  0
   -3.4884   -0.7798   -1.2329 C   0  0  0  0  0  0  0  0  0  0  0  0
    2.7932   -0.5708   -0.6759 C   0  0  0  0  0  0  0  0  0  0  0  0
    3.9796   -0.5857    0.0487 C   0  0  0  0  0  0  0  0  0  0  0  0
    4.3270    0.4125    0.9616 C   0  0  0  0  0  0  0  0  0  0  0  0
   -2.2736   -2.6661    0.4253 C   0  0  0  0  0  0  0  0  0  0  0  0
   -3.3115   -2.0896   -1.6789 C   0  0  0  0  0  0  0  0  0  0  0  0
    2.8481   -1.7424   -1.4611 C   0  0  0  0  0  0  0  0  0  0  0  0
   -2.7039   -3.0328   -0.8501 C   0  0  0  0  0  0  0  0  0  0  0  0
   -1.6521   -3.6330    1.2739 C   0  0  0  0  0  0  0  0  0  0  0  0
   -1.1300   -4.4457    1.9874 C   0  0  0  0  0  0  0  0  0  0  0  0
    0.1904    2.4229   -1.1483 H   0  0  0  0  0  0  0  0  0  0  0  0
   -0.3894    4.5138    0.9725 H   0  0  0  0  0  0  0  0  0  0  0  0
    0.3227    4.7700   -0.6151 H   0  0  0  0  0  0  0  0  0  0  0  0
   -0.6319    0.7270    0.4993 H   0  0  0  0  0  0  0  0  0  0  0  0
   -1.0357    1.9939    1.6420 H   0  0  0  0  0  0  0  0  0  0  0  0
   -2.1356    5.2978   -0.5338 H   0  0  0  0  0  0  0  0  0  0  0  0
   -1.7399    4.0660   -1.7302 H   0  0  0  0  0  0  0  0  0  0  0  0
   -2.9108    3.5959    1.0630 H   0  0  0  0  0  0  0  0  0  0  0  0
   -3.7253    3.3985   -0.4938 H   0  0  0  0  0  0  0  0  0  0  0  0
   -4.2734    1.2884    0.2386 H   0  0  0  0  0  0  0  0  0  0  0  0
   -3.2355    1.0495    1.6206 H   0  0  0  0  0  0  0  0  0  0  0  0
    1.5679    3.2310    1.3285 H   0  0  0  0  0  0  0  0  0  0  0  0
    0.9787    0.4747   -1.0804 H   0  0  0  0  0  0  0  0  0  0  0  0
    3.6621    2.2531    1.8362 H   0  0  0  0  0  0  0  0  0  0  0  0
   -2.1159   -1.0688    1.8661 H   0  0  0  0  0  0  0  0  0  0  0  0
   -3.9631   -0.0543   -1.8883 H   0  0  0  0  0  0  0  0  0  0  0  0
    5.2584    0.3800    1.5158 H   0  0  0  0  0  0  0  0  0  0  0  0
   -3.6465   -2.3749   -2.6719 H   0  0  0  0  0  0  0  0  0  0  0  0
    2.1194   -2.1107   -2.1695 H   0  0  0  0  0  0  0  0  0  0  0  0
   -2.5730   -4.0496   -1.2125 H   0  0  0  0  0  0  0  0  0  0  0  0
    5.5268   -2.0660   -0.0272 H   0  0  0  0  0  0  0  0  0  0  0  0
   -0.6668   -5.1663    2.6201 H   0  0  0  0  0  0  0  0  0  0  0  0
  1  7  1  0  0  0  0
  1  9  1  0  0  0  0
  1 10  1  0  0  0  0
  2  5  1  0  0  0  0
  2 11  1  0  0  0  0
  2 37  1  0  0  0  0
  3  4  1  0  0  0  0
  3 18  1  0  0  0  0
  3 46  1  0  0  0  0
  4 22  2  0  0  0  0
  5  6  1  0  0  0  0
  5  7  1  0  0  0  0
  5 26  1  0  0  0  0
  6  8  1  0  0  0  0
  6 27  1  0  0  0  0
  6 28  1  0  0  0  0
  7 29  1  0  0  0  0
  7 30  1  0  0  0  0
  8  9  1  0  0  0  0
  8 31  1  0  0  0  0
  8 32  1  0  0  0  0
  9 33  1  0  0  0  0
  9 34  1  0  0  0  0
 10 12  1  0  0  0  0
 10 35  1  0  0  0  0
 10 36  1  0  0  0  0
 11 13  2  0  0  0  0
 11 14  1  0  0  0  0
 12 15  2  0  0  0  0
 12 16  1  0  0  0  0
 13 17  1  0  0  0  0
 13 38  1  0  0  0  0
 14 19  2  0  0  0  0
 14 39  1  0  0  0  0
 15 20  1  0  0  0  0
 15 40  1  0  0  0  0
 16 21  2  0  0  0  0
 16 41  1  0  0  0  0
 17 18  2  0  0  0  0
 17 22  1  0  0  0  0
 18 19  1  0  0  0  0
 19 42  1  0  0  0  0
 20 23  2  0  0  0  0
 20 24  1  0  0  0  0
 21 23  1  0  0  0  0
 21 43  1  0  0  0  0
 22 44  1  0  0  0  0
 23 45  1  0  0  0  0
 24 25  3  0  0  0  0
 25 47  1  0  0  0  0
M  END
> <PUBCHEM_COMPOUND_CID>
57446050

> <PUBCHEM_CONFORMER_RMSD>
0.8

> <PUBCHEM_CONFORMER_DIVERSEORDER>
1
271
243
108
330
105
215
297
98
331
171
195
35
338
255
380
318
181
149
80
84
287
123
298
408
305
329
384
169
159
315
293
194
131
128
251
114
102
193
184
218
12
285
226
294
124
399
343
303
91
164
242
286
398
222
221
17
57
203
133
157
346
266
104
278
187
27
113
205
270
246
372
291
147
379
75
245
170
143
235
219
295
68
273
244
352
5
97
142
340
220
48
396
46
312
228
152
227
317
204
232
67
395
134
366
409
230
94
29
375
383
268
201
180
89
208
96
373
334
239
136
165
213
376
233
87
284
261
146
349
38
259
106
199
158
92
390
209
45
364
300
103
59
66
335
202
24
192
241
11
401
386
302
179
269
126
234
405
256
188
377
8
345
140
214
274
60
135
378
264
348
76
267
260
83
311
354
107
296
332
137
34
257
359
327
306
198
281
288
254
144
176
316
52
355
183
163
55
58
397
324
236
110
382
33
168
356
216
283
392
381
174
74
299
253
301
90
229
249
70
353
307
182
328
310
61
368
325
172
190
151
404
14
31
388
304
292
200
313
130
367
319
406
4
326
141
387
40
127
69
322
410
314
357
177
30
81
15
150
37
351
290
2
153
358
175
211
119
337
101
258
197
13
155
252
347
272
342
389
263
336
360
333
240
206
186
237
350
210
49
231
185
28
95
10
118
248
62
99
122
125
111
279
16
51
6
189
196
308
161
88
3
138
247
207
363
115
385
407
275
129
85
41
403
139
77
309
341
53
25
224
191
42
73
112
223
132
225
262
7
26
167
86
36
212
162
178
121
344
82
320
100
166
54
393
19
391
289
116
277
21
109
56
65
78
361
117
362
250
93
160
400
63
265
369
32
374
72
276
173
120
64
23
280
145
238
44
282
50
321
20
394
71
323
402
39
9
79
371
154
156
217
22
43
339
18
365
370
148
47

> <PUBCHEM_MMFF94_PARTIAL_CHARGES>
33
1 -0.81
10 0.41
11 0.1
12 -0.14
13 -0.15
14 -0.15
15 -0.15
16 -0.15
18 -0.15
19 -0.15
2 -0.87
20 0.07
21 -0.15
22 0.14
23 -0.15
24 -0.07
25 -0.18
3 0.3
37 0.4
38 0.15
39 0.15
4 -0.71
40 0.15
41 0.15
42 0.15
43 0.15
44 0.15
45 0.15
46 0.27
47 0.18
5 0.37
7 0.27
9 0.27

> <PUBCHEM_EFFECTIVE_ROTOR_COUNT>
5.2

> <PUBCHEM_PHARMACOPHORE_FEATURES>
10
1 1 cation
1 2 cation
1 2 donor
1 25 hydrophobe
1 3 donor
1 4 acceptor
5 3 4 17 18 22 rings
6 1 5 6 7 8 9 rings
6 11 13 14 17 18 19 rings
6 12 15 16 20 21 23 rings

> <PUBCHEM_HEAVY_ATOM_COUNT>
25

> <PUBCHEM_ATOM_DEF_STEREO_COUNT>
0

> <PUBCHEM_ATOM_UDEF_STEREO_COUNT>
1

> <PUBCHEM_BOND_DEF_STEREO_COUNT>
0

> <PUBCHEM_BOND_UDEF_STEREO_COUNT>
0

> <PUBCHEM_ISOTOPIC_ATOM_COUNT>
0

> <PUBCHEM_COMPONENT_COUNT>
1

> <PUBCHEM_CACTVS_TAUTO_COUNT>
2

> <PUBCHEM_CONFORMER_ID>
036C8EA200000001

> <PUBCHEM_MMFF94_ENERGY>
57.2575

> <PUBCHEM_FEATURE_SELFOVERLAP>
50.837

> <PUBCHEM_SHAPE_FINGERPRINT>
107951 10 17245009037856171937
1100329 8 17328301351312110090
11552529 35 17704068516563826344
12202916 173 17979323642075217818
12422481 6 18128002783438882579
12553582 1 18266470990667337117
13122387 1 17331690041711185902
13402501 40 18128259978068831996
1361 2 15962295111949979055
140371 6 18193832871923546385
14251757 5 18194427540262716062
14363568 33 17328324939324630136
14659021 117 18409718561274291650
14725015 67 18338796715350800299
17627616 140 17470451733425678723
17859628 97 18049449136642990961
19315092 285 16053766589609739935
19930381 70 17764022863092942487
23559900 14 17760915639006205153
3298306 158 17616535056121154277
445580 102 17543633483571145827
469060 322 17340364467142439188
5265222 85 17903666011139973772
5309563 4 17545609314788464955
613672 6 18194105550400488003
7987 15 17756439509762755059
9709674 26 18341891896396088584

> <PUBCHEM_SHAPE_MULTIPOLES>
494.56
8.17
6.28
1.41
6.2
2.16
-0.02
-5.01
-1
-3.95
0.94
-0.3
-1.44
1.56

> <PUBCHEM_SHAPE_SELFOVERLAP>
1074.408

> <PUBCHEM_SHAPE_VOLUME>
268.4

> <PUBCHEM_COORDINATE_TYPE>
2
5
10

$$$$
25009704
  -OEChem-05102415113D

 51 54  0     1  0  0  0  0  0999 V2000
   -2.5790   -2.9391    1.0671 S   0  0  0  0  0  0  0  0  0  0  0  0
   -2.6744   -2.5540    2.4680 O   0  0  0  0  0  0  0  0  0  0  0  0
   -3.4025   -4.0277    0.5591 O   0  0  0  0  0  0  0  0  0  0  0  0
   -1.3350    2.8291   -0.0854 N   0  0  2  0  0  0  0  0  0  0  0  0
    2.2606    2.1826    0.7169 N   0  0  0  0  0  0  0  0  0  0  0  0
    3.9891   -2.8807   -0.4621 N   0  0  0  0  0  0  0  0  0  0  0  0
    3.1631   -3.2873   -1.4404 N   0  0  0  0  0  0  0  0  0  0  0  0
    1.1405    2.7626    0.0053 C   0  0  1  0  0  0  0  0  0  0  0  0
   -0.1744    2.2120    0.5733 C   0  0  0  0  0  0  0  0  0  0  0  0
    1.1903    4.2863    0.1236 C   0  0  0  0  0  0  0  0  0  0  0  0
   -0.0595    4.9092   -0.4886 C   0  0  0  0  0  0  0  0  0  0  0  0
   -1.3312    4.2878    0.0901 C   0  0  0  0  0  0  0  0  0  0  0  0
   -2.5794    2.2554    0.4266 C   0  0  0  0  0  0  0  0  0  0  0  0
   -2.8444    0.8886   -0.1464 C   0  0  0  0  0  0  0  0  0  0  0  0
    2.7475    0.9114    0.4707 C   0  0  0  0  0  0  0  0  0  0  0  0
   -2.6174   -0.2488    0.6285 C   0  0  0  0  0  0  0  0  0  0  0  0
   -3.3170    0.7597   -1.4524 C   0  0  0  0  0  0  0  0  0  0  0  0
    2.1419    0.1215   -0.5146 C   0  0  0  0  0  0  0  0  0  0  0  0
    3.8347    0.4349    1.2055 C   0  0  0  0  0  0  0  0  0  0  0  0
   -2.8631   -1.5149    0.0975 C   0  0  0  0  0  0  0  0  0  0  0  0
    2.6526   -1.1660   -0.7499 C   0  0  0  0  0  0  0  0  0  0  0  0
    3.7361   -1.6159   -0.0036 C   0  0  0  0  0  0  0  0  0  0  0  0
   -3.5627   -0.5064   -1.9836 C   0  0  0  0  0  0  0  0  0  0  0  0
    4.3542   -0.8445    0.9829 C   0  0  0  0  0  0  0  0  0  0  0  0
   -3.3357   -1.6437   -1.2085 C   0  0  0  0  0  0  0  0  0  0  0  0
    2.3513   -2.2417   -1.6126 C   0  0  0  0  0  0  0  0  0  0  0  0
   -0.8862   -3.3703    0.7327 C   0  0  0  0  0  0  0  0  0  0  0  0
    1.2078    2.5452   -1.0689 H   0  0  0  0  0  0  0  0  0  0  0  0
   -0.1993    1.1273    0.4396 H   0  0  0  0  0  0  0  0  0  0  0  0
   -0.2101    2.3875    1.6584 H   0  0  0  0  0  0  0  0  0  0  0  0
    1.2618    4.5830    1.1785 H   0  0  0  0  0  0  0  0  0  0  0  0
    2.0862    4.6792   -0.3720 H   0  0  0  0  0  0  0  0  0  0  0  0
   -0.0602    5.9899   -0.3068 H   0  0  0  0  0  0  0  0  0  0  0  0
   -0.0432    4.7683   -1.5768 H   0  0  0  0  0  0  0  0  0  0  0  0
   -1.4228    4.5534    1.1517 H   0  0  0  0  0  0  0  0  0  0  0  0
   -2.1888    4.7293   -0.4320 H   0  0  0  0  0  0  0  0  0  0  0  0
   -2.5958    2.2331    1.5249 H   0  0  0  0  0  0  0  0  0  0  0  0
   -3.4352    2.8833    0.1406 H   0  0  0  0  0  0  0  0  0  0  0  0
    2.6664    2.7029    1.4872 H   0  0  0  0  0  0  0  0  0  0  0  0
   -2.2422   -0.1395    1.6428 H   0  0  0  0  0  0  0  0  0  0  0  0
   -3.4971    1.6382   -2.0664 H   0  0  0  0  0  0  0  0  0  0  0  0
    1.3030    0.4441   -1.1182 H   0  0  0  0  0  0  0  0  0  0  0  0
    4.2972    1.0581    1.9683 H   0  0  0  0  0  0  0  0  0  0  0  0
   -3.9289   -0.6067   -3.0011 H   0  0  0  0  0  0  0  0  0  0  0  0
    5.1985   -1.2165    1.5526 H   0  0  0  0  0  0  0  0  0  0  0  0
   -3.5273   -2.6201   -1.6443 H   0  0  0  0  0  0  0  0  0  0  0  0
    1.5720   -2.3057   -2.3588 H   0  0  0  0  0  0  0  0  0  0  0  0
    4.7105   -3.5187   -0.1498 H   0  0  0  0  0  0  0  0  0  0  0  0
   -0.2429   -2.5397    1.0301 H   0  0  0  0  0  0  0  0  0  0  0  0
   -0.7770   -3.5833   -0.3324 H   0  0  0  0  0  0  0  0  0  0  0  0
   -0.6404   -4.2590    1.3176 H   0  0  0  0  0  0  0  0  0  0  0  0
  1  2  2  0  0  0  0
  1  3  2  0  0  0  0
  1 20  1  0  0  0  0
  1 27  1  0  0  0  0
  4  9  1  0  0  0  0
  4 12  1  0  0  0  0
  4 13  1  0  0  0  0
  5  8  1  0  0  0  0
  5 15  1  0  0  0  0
  5 39  1  0  0  0  0
  6  7  1  0  0  0  0
  6 22  1  0  0  0  0
  6 48  1  0  0  0  0
  7 26  2  0  0  0  0
  8  9  1  0  0  0  0
  8 10  1  0  0  0  0
  8 28  1  0  0  0  0
  9 29  1  0  0  0  0
  9 30  1  0  0  0  0
 10 11  1  0  0  0  0
 10 31  1  0  0  0  0
 10 32  1  0  0  0  0
 11 12  1  0  0  0  0
 11 33  1  0  0  0  0
 11 34  1  0  0  0  0
 12 35  1  0  0  0  0
 12 36  1  0  0  0  0
 13 14  1  0  0  0  0
 13 37  1  0  0  0  0
 13 38  1  0  0  0  0
 14 16  2  0  0  0  0
 14 17  1  0  0  0  0
 15 18  2  0  0  0  0
 15 19  1  0  0  0  0
 16 20  1  0  0  0  0
 16 40  1  0  0  0  0
 17 23  2  0  0  0  0
 17 41  1  0  0  0  0
 18 21  1  0  0  0  0
 18 42  1  0  0  0  0
 19 24  2  0  0  0  0
 19 43  1  0  0  0  0
 20 25  2  0  0  0  0
 21 22  2  0  0  0  0
 21 26  1  0  0  0  0
 22 24  1  0  0  0  0
 23 25  1  0  0  0  0
 23 44  1  0  0  0  0
 24 45  1  0  0  0  0
 25 46  1  0  0  0  0
 26 47  1  0  0  0  0
 27 49  1  0  0  0  0
 27 50  1  0  0  0  0
 27 51  1  0  0  0  0
M  END
> <PUBCHEM_COMPOUND_CID>
25009704

> <PUBCHEM_CONFORMER_RMSD>
1

> <PUBCHEM_CONFORMER_DIVERSEORDER>
1
14
113
120
232
132
175
327
63
217
54
208
176
214
94
322
178
241
147
160
205
159
124
234
236
296
67
50
262
60
188
118
221
183
277
164
254
261
211
192
80
225
203
20
148
330
294
98
224
97
78
318
181
286
25
246
285
288
19
51
38
85
204
173
283
130
245
153
293
306
119
89
289
169
101
186
161
102
253
152
189
313
276
297
121
15
61
66
282
47
298
328
154
242
72
73
92
259
52
141
114
334
138
326
195
2
139
331
240
216
158
302
122
206
332
316
39
291
17
37
172
103
131
71
275
6
324
210
65
180
231
310
292
135
252
191
82
117
163
233
228
7
305
243
93
190
86
83
260
167
257
315
193
23
106
278
18
99
46
301
212
21
307
26
290
281
43
271
162
3
323
9
35
32
227
247
24
133
79
218
336
100
49
111
59
127
144
165
155
268
84
81
56
90
68
269
222
11
185
136
267
16
230
229
69
33
317
62
57
272
314
110
125
168
263
140
171
45
4
250
274
273
5
149
29
280
265
335
303
146
116
213
30
76
166
40
109
249
248
142
74
108
304
201
198
170
266
325
270
244
150
88
123
128
34
321
70
157
75
251
137
42
143
199
194
174
105
10
237
312
264
295
197
202
55
104
64
134
215
107
279
258
287
196
8
226
48
300
179
320
219
256
239
223
44
308
309
112
53
333
235
200
182
299
27
87
329
209
31
311
41
115
156
284
145
187
36
95
126
255
96
184
13
319
22
207
91
28
77
220
177
151
58
129
238
12

> <PUBCHEM_MMFF94_PARTIAL_CHARGES>
34
1 1.2
12 0.27
13 0.41
14 -0.14
15 0.1
16 -0.15
17 -0.15
18 -0.15
19 -0.15
2 -0.65
20 -0.01
22 -0.15
23 -0.15
24 -0.15
25 -0.15
26 0.14
27 0.11
3 -0.65
39 0.4
4 -0.81
40 0.15
41 0.15
42 0.15
43 0.15
44 0.15
45 0.15
46 0.15
47 0.15
48 0.27
5 -0.87
6 0.3
7 -0.71
8 0.37
9 0.27

> <PUBCHEM_EFFECTIVE_ROTOR_COUNT>
6.2

> <PUBCHEM_PHARMACOPHORE_FEATURES>
11
1 2 acceptor
1 3 acceptor
1 4 cation
1 5 cation
1 5 donor
1 6 donor
1 7 acceptor
5 6 7 21 22 26 rings
6 14 16 17 20 23 25 rings
6 15 18 19 21 22 24 rings
6 4 8 9 10 11 12 rings

> <PUBCHEM_HEAVY_ATOM_COUNT>
27

> <PUBCHEM_ATOM_DEF_STEREO_COUNT>
0

> <PUBCHEM_ATOM_UDEF_STEREO_COUNT>
1

> <PUBCHEM_BOND_DEF_STEREO_COUNT>
0

> <PUBCHEM_BOND_UDEF_STEREO_COUNT>
0

> <PUBCHEM_ISOTOPIC_ATOM_COUNT>
0

> <PUBCHEM_COMPONENT_COUNT>
1

> <PUBCHEM_CACTVS_TAUTO_COUNT>
2

> <PUBCHEM_CONFORMER_ID>
017D9E2800000001

> <PUBCHEM_MMFF94_ENERGY>
57.6949

> <PUBCHEM_FEATURE_SELFOVERLAP>
55.93

> <PUBCHEM_SHAPE_FINGERPRINT>
11828532 37 17461712098418925619
12202916 173 18122871391872250078
12553582 1 18411709797943475084
12788726 201 18193551164859625170
13122387 1 18123184598009061410
1361 2 16825866877454125347
140371 6 18411129264346997281
14251757 5 17978816535586857206
14363568 33 17833010599164194880
14659021 117 18266446608480739882
14725015 67 18051689945624660147
15322534 239 17185611117194376335
16719943 64 17472426452283196442
17627616 140 16679511356805121415
19930381 70 18122907800647732403
20764821 26 18337123318571701858
21987440 362 15514680122514058629
23559900 14 18193543695948647993
445580 102 18121217842300199550
469060 322 17554565777710095996
5265222 85 17473290685987171876
5309563 4 18051133889030425923
57527585 103 18260840306038850187
613672 6 18339060670865220818
7987 15 18190192358663472027
9709674 26 18341609287500500010

> <PUBCHEM_SHAPE_MULTIPOLES>
527.83
7.95
6.75
1.51
2.87
4.75
-0.07
-6.55
-0.35
-0.89
0.39
-0.74
-1.25
2.06

> <PUBCHEM_SHAPE_SELFOVERLAP>
1127.945

> <PUBCHEM_SHAPE_VOLUME>
294.7

> <PUBCHEM_COORDINATE_TYPE>
2
5
10

$$$$
57446051
  -OEChem-05102415113D

 47 50  0     1  0  0  0  0  0999 V2000
   -2.7487    1.1634   -0.1186 N   0  0  2  0  0  0  0  0  0  0  0  0
    0.6763    2.6017    0.3176 N   0  0  0  0  0  0  0  0  0  0  0  0
    4.7329   -1.0772    0.1713 N   0  0  0  0  0  0  0  0  0  0  0  0
    4.2311   -2.0868   -0.5597 N   0  0  0  0  0  0  0  0  0  0  0  0
    2.0950   -2.3523   -1.6074 N   0  0  0  0  0  0  0  0  0  0  0  0
   -0.5803    2.3396   -0.3529 C   0  0  2  0  0  0  0  0  0  0  0  0
   -1.3088    3.6587   -0.6125 C   0  0  0  0  0  0  0  0  0  0  0  0
   -1.4383    1.3998    0.5047 C   0  0  0  0  0  0  0  0  0  0  0  0
   -2.6994    3.3965   -1.1802 C   0  0  0  0  0  0  0  0  0  0  0  0
   -3.4844    2.4221   -0.3012 C   0  0  0  0  0  0  0  0  0  0  0  0
   -3.5340    0.2234    0.6812 C   0  0  0  0  0  0  0  0  0  0  0  0
    1.7403    1.7179    0.3207 C   0  0  0  0  0  0  0  0  0  0  0  0
   -3.0684   -1.1963    0.4953 C   0  0  0  0  0  0  0  0  0  0  0  0
    1.6224    0.4961   -0.3536 C   0  0  0  0  0  0  0  0  0  0  0  0
    2.9153    2.0554    0.9949 C   0  0  0  0  0  0  0  0  0  0  0  0
    2.7149   -0.3870   -0.3382 C   0  0  0  0  0  0  0  0  0  0  0  0
   -3.6268   -1.9879   -0.5082 C   0  0  0  0  0  0  0  0  0  0  0  0
   -2.0786   -1.7197    1.3269 C   0  0  0  0  0  0  0  0  0  0  0  0
    3.8731   -0.0259    0.3411 C   0  0  0  0  0  0  0  0  0  0  0  0
    4.0113    1.1869    1.0196 C   0  0  0  0  0  0  0  0  0  0  0  0
    3.0031   -1.6633   -0.8673 C   0  0  0  0  0  0  0  0  0  0  0  0
   -3.1954   -3.3033   -0.6802 C   0  0  0  0  0  0  0  0  0  0  0  0
   -1.6470   -3.0350    1.1550 C   0  0  0  0  0  0  0  0  0  0  0  0
   -2.2055   -3.8268    0.1515 C   0  0  0  0  0  0  0  0  0  0  0  0
   -0.4078    1.8959   -1.3424 H   0  0  0  0  0  0  0  0  0  0  0  0
   -1.4018    4.2309    0.3202 H   0  0  0  0  0  0  0  0  0  0  0  0
   -0.7328    4.2838   -1.3054 H   0  0  0  0  0  0  0  0  0  0  0  0
   -0.8975    0.4614    0.6274 H   0  0  0  0  0  0  0  0  0  0  0  0
   -1.5601    1.8234    1.5120 H   0  0  0  0  0  0  0  0  0  0  0  0
   -3.2475    4.3416   -1.2654 H   0  0  0  0  0  0  0  0  0  0  0  0
   -2.6094    2.9869   -2.1944 H   0  0  0  0  0  0  0  0  0  0  0  0
   -3.7021    2.8908    0.6676 H   0  0  0  0  0  0  0  0  0  0  0  0
   -4.4453    2.2258   -0.7924 H   0  0  0  0  0  0  0  0  0  0  0  0
   -4.5903    0.2579    0.3794 H   0  0  0  0  0  0  0  0  0  0  0  0
   -3.5345    0.4917    1.7468 H   0  0  0  0  0  0  0  0  0  0  0  0
    0.7601    3.4438    0.8767 H   0  0  0  0  0  0  0  0  0  0  0  0
    0.7372    0.1931   -0.8983 H   0  0  0  0  0  0  0  0  0  0  0  0
    2.9953    3.0078    1.5152 H   0  0  0  0  0  0  0  0  0  0  0  0
   -4.3971   -1.5917   -1.1646 H   0  0  0  0  0  0  0  0  0  0  0  0
   -1.6465   -1.1246    2.1269 H   0  0  0  0  0  0  0  0  0  0  0  0
    4.9246    1.4473    1.5427 H   0  0  0  0  0  0  0  0  0  0  0  0
   -3.6297   -3.9197   -1.4619 H   0  0  0  0  0  0  0  0  0  0  0  0
   -0.8790   -3.4439    1.8049 H   0  0  0  0  0  0  0  0  0  0  0  0
    5.6761   -1.1683    0.5277 H   0  0  0  0  0  0  0  0  0  0  0  0
   -1.8698   -4.8510    0.0181 H   0  0  0  0  0  0  0  0  0  0  0  0
    1.1673   -1.9975   -1.8186 H   0  0  0  0  0  0  0  0  0  0  0  0
    2.3019   -3.2704   -1.9882 H   0  0  0  0  0  0  0  0  0  0  0  0
  1  8  1  0  0  0  0
  1 10  1  0  0  0  0
  1 11  1  0  0  0  0
  2  6  1  0  0  0  0
  2 12  1  0  0  0  0
  2 36  1  0  0  0  0
  3  4  1  0  0  0  0
  3 19  1  0  0  0  0
  3 44  1  0  0  0  0
  4 21  2  0  0  0  0
  5 21  1  0  0  0  0
  5 46  1  0  0  0  0
  5 47  1  0  0  0  0
  6  7  1  0  0  0  0
  6  8  1  0  0  0  0
  6 25  1  0  0  0  0
  7  9  1  0  0  0  0
  7 26  1  0  0  0  0
  7 27  1  0  0  0  0
  8 28  1  0  0  0  0
  8 29  1  0  0  0  0
  9 10  1  0  0  0  0
  9 30  1  0  0  0  0
  9 31  1  0  0  0  0
 10 32  1  0  0  0  0
 10 33  1  0  0  0  0
 11 13  1  0  0  0  0
 11 34  1  0  0  0  0
 11 35  1  0  0  0  0
 12 14  2  0  0  0  0
 12 15  1  0  0  0  0
 13 17  2  0  0  0  0
 13 18  1  0  0  0  0
 14 16  1  0  0  0  0
 14 37  1  0  0  0  0
 15 20  2  0  0  0  0
 15 38  1  0  0  0  0
 16 19  2  0  0  0  0
 16 21  1  0  0  0  0
 17 22  1  0  0  0  0
 17 39  1  0  0  0  0
 18 23  2  0  0  0  0
 18 40  1  0  0  0  0
 19 20  1  0  0  0  0
 20 41  1  0  0  0  0
 22 24  2  0  0  0  0
 22 42  1  0  0  0  0
 23 24  1  0  0  0  0
 23 43  1  0  0  0  0
 24 45  1  0  0  0  0
M  END
> <PUBCHEM_COMPOUND_CID>
57446051

> <PUBCHEM_CONFORMER_RMSD>
0.8

> <PUBCHEM_CONFORMER_DIVERSEORDER>
1
123
17
42
51
163
169
72
149
115
63
100
138
122
75
84
26
22
93
132
81
80
109
62
129
146
58
7
61
108
78
121
52
11
148
111
134
53
126
46
135
160
48
27
66
29
92
4
155
8
90
106
107
120
154
142
117
5
125
141
112
89
101
144
70
74
49
168
124
60
97
143
136
145
147
67
151
12
116
105
76
157
32
10
91
25
31
28
104
86
139
167
39
114
77
21
102
103
50
19
166
158
113
54
165
24
73
69
68
71
110
94
20
18
6
88
98
43
14
85
59
41
96
37
161
65
153
131
127
83
95
119
3
38
2
159
64
152
162
44
128
40
118
137
140
13
45
16
156
36
30
130
33
47
9
57
82
34
35
55
87
133
15
99
150
79
23
164
56

> <PUBCHEM_MMFF94_PARTIAL_CHARGES>
33
1 -0.81
10 0.27
11 0.41
12 0.1
13 -0.14
14 -0.15
15 -0.15
17 -0.15
18 -0.15
19 -0.15
2 -0.87
20 -0.15
21 0.37
22 -0.15
23 -0.15
24 -0.15
3 0.3
36 0.4
37 0.15
38 0.15
39 0.15
4 -0.71
40 0.15
41 0.15
42 0.15
43 0.15
44 0.27
45 0.15
46 0.4
47 0.4
5 -0.88
6 0.37
8 0.27

> <PUBCHEM_EFFECTIVE_ROTOR_COUNT>
5.2

> <PUBCHEM_PHARMACOPHORE_FEATURES>
10
1 1 cation
1 2 cation
1 2 donor
1 3 donor
1 5 donor
3 4 5 21 cation
5 3 4 16 19 21 rings
6 1 6 7 8 9 10 rings
6 12 14 15 16 19 20 rings
6 13 17 18 22 23 24 rings

> <PUBCHEM_HEAVY_ATOM_COUNT>
24

> <PUBCHEM_ATOM_DEF_STEREO_COUNT>
0

> <PUBCHEM_ATOM_UDEF_STEREO_COUNT>
1

> <PUBCHEM_BOND_DEF_STEREO_COUNT>
0

> <PUBCHEM_BOND_UDEF_STEREO_COUNT>
0

> <PUBCHEM_ISOTOPIC_ATOM_COUNT>
0

> <PUBCHEM_COMPONENT_COUNT>
1

> <PUBCHEM_CACTVS_TAUTO_COUNT>
18

> <PUBCHEM_CONFORMER_ID>
036C8EA300000001

> <PUBCHEM_MMFF94_ENERGY>
59.4164

> <PUBCHEM_FEATURE_SELFOVERLAP>
50.839

> <PUBCHEM_SHAPE_FINGERPRINT>
10074138 170 15967622211532168448
10616163 171 18267590297730711096
107951 10 17098071437960176657
1100329 8 15456777379178807421
11552529 35 17988926733676583761
117890 22 18341902925687287082
12422481 6 18123502512469474771
12553582 1 18047206416384537241
12633257 1 18200610119514453979
13122387 1 17690006630449252475
13402501 40 18340491058173009539
138480 1 16320054591899611337
14081887 123 18410285917653142482
14251757 17 18197216944979149336
14251757 5 18264512618940787974
14363568 33 17398981729652529672
1454969 45 17834669771001650600
14725015 67 18410290281498924147
15352361 1 18266456705606130171
19141452 34 18413111688792075569
19930381 70 17545320143436380427
20775530 9 18268153239141742403
21344244 181 18268688560319687317
23559900 14 18340201878758790624
3298306 158 17686614646099891637
463206 1 17049077590579376567
469060 322 17411021317525683324
508706 21 18411135818482460726
5309563 4 17545046364940714131
56633871 153 18267315399056280619
6433294 58 18195246616322526058
9709674 26 18412821369913271228

> <PUBCHEM_SHAPE_MULTIPOLES>
469
8.6
5.31
1.14
5.43
0.36
-0.01
-3.75
0.28
-4.61
-1.14
0.05
-0.28
1.78

> <PUBCHEM_SHAPE_SELFOVERLAP>
1021.008

> <PUBCHEM_SHAPE_VOLUME>
253.2

> <PUBCHEM_COORDINATE_TYPE>
2
5
10

$$$$
24825745
  -OEChem-05102415113D

 53 56  0     1  0  0  0  0  0999 V2000
    2.2461   -3.0225    0.7097 S   0  0  0  0  0  0  0  0  0  0  0  0
    3.2396   -3.7237    1.5014 O   0  0  0  0  0  0  0  0  0  0  0  0
    2.3696   -2.9513   -0.7328 O   0  0  0  0  0  0  0  0  0  0  0  0
   -3.3151    0.3566   -0.0119 N   0  0  2  0  0  0  0  0  0  0  0  0
   -0.8628    3.1106    0.6145 N   0  0  0  0  0  0  0  0  0  0  0  0
    0.6859   -3.5907    1.1667 N   0  0  0  0  0  0  0  0  0  0  0  0
    4.3417    1.8381   -0.5292 N   0  0  0  0  0  0  0  0  0  0  0  0
    4.2443    0.8667   -1.4521 N   0  0  0  0  0  0  0  0  0  0  0  0
   -1.9516    2.4254   -0.0508 C   0  0  1  0  0  0  0  0  0  0  0  0
   -2.1738    1.0534    0.5994 C   0  0  0  0  0  0  0  0  0  0  0  0
   -3.2187    3.2778    0.0271 C   0  0  0  0  0  0  0  0  0  0  0  0
   -4.4116    2.5112   -0.5333 C   0  0  0  0  0  0  0  0  0  0  0  0
   -4.5509    1.1391    0.1272 C   0  0  0  0  0  0  0  0  0  0  0  0
   -3.4810   -0.9711    0.5792 C   0  0  0  0  0  0  0  0  0  0  0  0
   -2.4639   -1.9496    0.0549 C   0  0  0  0  0  0  0  0  0  0  0  0
    0.4721    2.8388    0.3743 C   0  0  0  0  0  0  0  0  0  0  0  0
   -1.3726   -2.3121    0.8445 C   0  0  0  0  0  0  0  0  0  0  0  0
    0.8166    1.8519   -0.5578 C   0  0  0  0  0  0  0  0  0  0  0  0
   -2.6133   -2.4937   -1.2207 C   0  0  0  0  0  0  0  0  0  0  0  0
    1.4558    3.5519    1.0620 C   0  0  0  0  0  0  0  0  0  0  0  0
    2.1780    1.5923   -0.7880 C   0  0  0  0  0  0  0  0  0  0  0  0
   -0.4309   -3.2189    0.3585 C   0  0  0  0  0  0  0  0  0  0  0  0
    3.1372    2.3170   -0.0893 C   0  0  0  0  0  0  0  0  0  0  0  0
    2.8151    3.3049    0.8438 C   0  0  0  0  0  0  0  0  0  0  0  0
   -1.6714   -3.4005   -1.7068 C   0  0  0  0  0  0  0  0  0  0  0  0
   -0.5803   -3.7631   -0.9171 C   0  0  0  0  0  0  0  0  0  0  0  0
    2.9265    0.7198   -1.6068 C   0  0  0  0  0  0  0  0  0  0  0  0
    2.1696   -1.3584    1.3337 C   0  0  0  0  0  0  0  0  0  0  0  0
   -1.7390    2.3056   -1.1214 H   0  0  0  0  0  0  0  0  0  0  0  0
   -2.3342    1.1786    1.6802 H   0  0  0  0  0  0  0  0  0  0  0  0
   -1.2667    0.4526    0.4941 H   0  0  0  0  0  0  0  0  0  0  0  0
   -3.4256    3.5560    1.0690 H   0  0  0  0  0  0  0  0  0  0  0  0
   -3.0831    4.2157   -0.5249 H   0  0  0  0  0  0  0  0  0  0  0  0
   -4.2910    2.3877   -1.6170 H   0  0  0  0  0  0  0  0  0  0  0  0
   -5.3286    3.0909   -0.3784 H   0  0  0  0  0  0  0  0  0  0  0  0
   -5.3822    0.6145   -0.3595 H   0  0  0  0  0  0  0  0  0  0  0  0
   -4.8173    1.2631    1.1852 H   0  0  0  0  0  0  0  0  0  0  0  0
   -3.4623   -0.9330    1.6771 H   0  0  0  0  0  0  0  0  0  0  0  0
   -4.4680   -1.3821    0.3238 H   0  0  0  0  0  0  0  0  0  0  0  0
   -1.0852    3.7735    1.3493 H   0  0  0  0  0  0  0  0  0  0  0  0
   -1.2534   -1.8881    1.8390 H   0  0  0  0  0  0  0  0  0  0  0  0
    0.0956    1.2752   -1.1237 H   0  0  0  0  0  0  0  0  0  0  0  0
   -3.4593   -2.2195   -1.8453 H   0  0  0  0  0  0  0  0  0  0  0  0
    1.1759    4.3168    1.7837 H   0  0  0  0  0  0  0  0  0  0  0  0
    3.5806    3.8575    1.3770 H   0  0  0  0  0  0  0  0  0  0  0  0
   -1.7892   -3.8263   -2.6990 H   0  0  0  0  0  0  0  0  0  0  0  0
    0.1379   -4.4807   -1.3052 H   0  0  0  0  0  0  0  0  0  0  0  0
    0.4936   -3.5723    2.1773 H   0  0  0  0  0  0  0  0  0  0  0  0
    2.5643   -0.0179   -2.3088 H   0  0  0  0  0  0  0  0  0  0  0  0
    5.2665    2.1312   -0.2398 H   0  0  0  0  0  0  0  0  0  0  0  0
    1.9815   -1.3920    2.4086 H   0  0  0  0  0  0  0  0  0  0  0  0
    1.3760   -0.8196    0.8171 H   0  0  0  0  0  0  0  0  0  0  0  0
    3.1345   -0.8838    1.1453 H   0  0  0  0  0  0  0  0  0  0  0  0
  1  2  2  0  0  0  0
  1  3  2  0  0  0  0
  1  6  1  0  0  0  0
  1 28  1  0  0  0  0
  4 10  1  0  0  0  0
  4 13  1  0  0  0  0
  4 14  1  0  0  0  0
  5  9  1  0  0  0  0
  5 16  1  0  0  0  0
  5 40  1  0  0  0  0
  6 22  1  0  0  0  0
  6 48  1  0  0  0  0
  7  8  1  0  0  0  0
  7 23  1  0  0  0  0
  7 50  1  0  0  0  0
  8 27  2  0  0  0  0
  9 10  1  0  0  0  0
  9 11  1  0  0  0  0
  9 29  1  0  0  0  0
 10 30  1  0  0  0  0
 10 31  1  0  0  0  0
 11 12  1  0  0  0  0
 11 32  1  0  0  0  0
 11 33  1  0  0  0  0
 12 13  1  0  0  0  0
 12 34  1  0  0  0  0
 12 35  1  0  0  0  0
 13 36  1  0  0  0  0
 13 37  1  0  0  0  0
 14 15  1  0  0  0  0
 14 38  1  0  0  0  0
 14 39  1  0  0  0  0
 15 17  2  0  0  0  0
 15 19  1  0  0  0  0
 16 18  2  0  0  0  0
 16 20  1  0  0  0  0
 17 22  1  0  0  0  0
 17 41  1  0  0  0  0
 18 21  1  0  0  0  0
 18 42  1  0  0  0  0
 19 25  2  0  0  0  0
 19 43  1  0  0  0  0
 20 24  2  0  0  0  0
 20 44  1  0  0  0  0
 21 23  2  0  0  0  0
 21 27  1  0  0  0  0
 22 26  2  0  0  0  0
 23 24  1  0  0  0  0
 24 45  1  0  0  0  0
 25 26  1  0  0  0  0
 25 46  1  0  0  0  0
 26 47  1  0  0  0  0
 27 49  1  0  0  0  0
 28 51  1  0  0  0  0
 28 52  1  0  0  0  0
 28 53  1  0  0  0  0
M  END
> <PUBCHEM_COMPOUND_CID>
24825745

> <PUBCHEM_CONFORMER_RMSD>
1.2

> <PUBCHEM_CONFORMER_DIVERSEORDER>
1
48
115
119
43
200
146
86
198
82
141
9
157
134
190
143
81
201
172
166
64
197
122
194
113
130
164
151
203
213
155
136
18
3
88
192
127
186
179
212
32
68
63
23
175
76
31
154
202
37
21
125
168
2
144
73
75
84
85
110
30
7
205
118
189
206
80
105
169
102
100
152
167
72
98
34
8
67
142
176
19
44
173
47
185
50
53
123
114
195
89
187
139
17
149
95
138
57
61
140
117
191
174
59
153
52
74
87
210
66
10
20
40
22
116
111
184
133
60
128
4
180
209
14
196
131
199
92
71
204
99
90
135
6
94
121
77
211
181
104
70
150
208
46
145
129
26
5
91
33
106
147
12
62
162
93
41
109
159
177
49
112
161
101
107
55
27
38
79
28
182
178
171
36
137
39
58
42
54
132
188
35
183
69
170
24
78
45
11
148
156
15
65
97
103
124
163
29
207
160
96
56
193
108
25
16
126
158
165
120
51
13
83

> <PUBCHEM_MMFF94_PARTIAL_CHARGES>
36
1 1.33
10 0.27
13 0.27
14 0.41
15 -0.14
16 0.1
17 -0.15
18 -0.15
19 -0.15
2 -0.65
20 -0.15
22 0.2
23 -0.15
24 -0.15
25 -0.15
26 -0.15
27 0.14
28 0.11
3 -0.65
4 -0.81
40 0.4
41 0.15
42 0.15
43 0.15
44 0.15
45 0.15
46 0.15
47 0.15
48 0.42
49 0.15
5 -0.87
50 0.27
6 -0.76
7 0.3
8 -0.71
9 0.37

> <PUBCHEM_EFFECTIVE_ROTOR_COUNT>
7.2

> <PUBCHEM_PHARMACOPHORE_FEATURES>
12
1 2 acceptor
1 3 acceptor
1 4 cation
1 5 cation
1 5 donor
1 6 donor
1 7 donor
1 8 acceptor
5 7 8 21 23 27 rings
6 15 17 19 22 25 26 rings
6 16 18 20 21 23 24 rings
6 4 9 10 11 12 13 rings

> <PUBCHEM_HEAVY_ATOM_COUNT>
28

> <PUBCHEM_ATOM_DEF_STEREO_COUNT>
0

> <PUBCHEM_ATOM_UDEF_STEREO_COUNT>
1

> <PUBCHEM_BOND_DEF_STEREO_COUNT>
0

> <PUBCHEM_BOND_UDEF_STEREO_COUNT>
0

> <PUBCHEM_ISOTOPIC_ATOM_COUNT>
0

> <PUBCHEM_COMPONENT_COUNT>
1

> <PUBCHEM_CACTVS_TAUTO_COUNT>
2

> <PUBCHEM_CONFORMER_ID>
017ACF9100000001

> <PUBCHEM_MMFF94_ENERGY>
68.5535

> <PUBCHEM_FEATURE_SELFOVERLAP>
61.005

> <PUBCHEM_SHAPE_FINGERPRINT>
1100329 8 18192712245824566931
11513181 2 18129376003930868390
12038231 1 17907018735039845898
12553582 1 16968872640969408317
12788726 201 17977380865152828200
13122387 1 18194125118281933878
13642711 20 17115190099170050959
140371 6 17546729253512737817
14117953 113 17255960070172283140
14251757 5 17831041369628628132
14659021 117 17836076050441339352
14725015 67 17835516394532609954
15961568 22 17474383574274600087
17627616 140 18335422353014871154
19611394 137 18045520616479374107
21796203 349 17545640788577349024
22113638 7 18050836737270182039
3027735 51 18194675089366504043
3298306 158 18409452483781937981
338550 245 18333734598444815460
463206 1 18410577245427482304
474144 1 17899148117761234382
5265222 85 18045524129414462340
57091435 65 18408046195108496370
6287921 2 16685420136445046210
6433294 58 18410576145720928832
9709674 26 17910397521535435821

> <PUBCHEM_SHAPE_MULTIPOLES>
543.43
7.54
7.02
1.36
1.9
2.88
0.21
-3.96
1.51
-1.36
-1.28
0.6
0.94
-0.79

> <PUBCHEM_SHAPE_SELFOVERLAP>
1156.488

> <PUBCHEM_SHAPE_VOLUME>
304.9

> <PUBCHEM_COORDINATE_TYPE>
2
5
10

$$$$
57446052
  -OEChem-05102415113D

 48 52  0     1  0  0  0  0  0999 V2000
   -3.6488   -3.1221   -0.5593 O   0  0  0  0  0  0  0  0  0  0  0  0
   -1.3043    2.7102   -0.0892 N   0  0  2  0  0  0  0  0  0  0  0  0
    2.3485    2.1187    0.4562 N   0  0  0  0  0  0  0  0  0  0  0  0
    3.9333   -3.0882   -0.1680 N   0  0  0  0  0  0  0  0  0  0  0  0
    3.0170   -3.6099   -1.0005 N   0  0  0  0  0  0  0  0  0  0  0  0
    1.1683    2.6149   -0.2210 C   0  0  1  0  0  0  0  0  0  0  0  0
   -0.0892    2.1694    0.5373 C   0  0  0  0  0  0  0  0  0  0  0  0
    1.2351    4.1394   -0.3187 C   0  0  0  0  0  0  0  0  0  0  0  0
   -0.0645    4.6939   -0.8918 C   0  0  0  0  0  0  0  0  0  0  0  0
   -1.2782    4.1790   -0.1172 C   0  0  0  0  0  0  0  0  0  0  0  0
   -2.4970    2.2331    0.6106 C   0  0  0  0  0  0  0  0  0  0  0  0
   -2.8202    0.8054    0.2583 C   0  0  0  0  0  0  0  0  0  0  0  0
    2.8046    0.8177    0.3434 C   0  0  0  0  0  0  0  0  0  0  0  0
   -2.5207   -0.2128    1.1737 C   0  0  0  0  0  0  0  0  0  0  0  0
   -3.4151    0.5161   -0.9725 C   0  0  0  0  0  0  0  0  0  0  0  0
    2.1052   -0.0887   -0.4635 C   0  0  0  0  0  0  0  0  0  0  0  0
    3.9534    0.4265    1.0335 C   0  0  0  0  0  0  0  0  0  0  0  0
   -2.8309   -1.5405    0.8310 C   0  0  0  0  0  0  0  0  0  0  0  0
    2.5847   -1.4052   -0.5650 C   0  0  0  0  0  0  0  0  0  0  0  0
   -3.7323   -0.7968   -1.3338 C   0  0  0  0  0  0  0  0  0  0  0  0
   -3.4228   -1.7873   -0.4034 C   0  0  0  0  0  0  0  0  0  0  0  0
    3.7310   -1.7683    0.1329 C   0  0  0  0  0  0  0  0  0  0  0  0
    4.4431   -0.8805    0.9424 C   0  0  0  0  0  0  0  0  0  0  0  0
   -2.6939   -2.8090    1.4538 C   0  0  0  0  0  0  0  0  0  0  0  0
    2.1981   -2.5831   -1.2398 C   0  0  0  0  0  0  0  0  0  0  0  0
   -3.2041   -3.7319    0.5703 C   0  0  0  0  0  0  0  0  0  0  0  0
    1.1328    2.2518   -1.2566 H   0  0  0  0  0  0  0  0  0  0  0  0
   -0.1308    1.0773    0.5569 H   0  0  0  0  0  0  0  0  0  0  0  0
   -0.0214    2.4922    1.5864 H   0  0  0  0  0  0  0  0  0  0  0  0
    1.4072    4.5762    0.6740 H   0  0  0  0  0  0  0  0  0  0  0  0
    2.0816    4.4457   -0.9449 H   0  0  0  0  0  0  0  0  0  0  0  0
   -0.0437    5.7891   -0.8612 H   0  0  0  0  0  0  0  0  0  0  0  0
   -0.1517    4.4053   -1.9470 H   0  0  0  0  0  0  0  0  0  0  0  0
   -1.2680    4.5887    0.9015 H   0  0  0  0  0  0  0  0  0  0  0  0
   -2.1796    4.5595   -0.6130 H   0  0  0  0  0  0  0  0  0  0  0  0
   -3.3735    2.8309    0.3226 H   0  0  0  0  0  0  0  0  0  0  0  0
   -2.4091    2.3616    1.6982 H   0  0  0  0  0  0  0  0  0  0  0  0
    2.8279    2.7327    1.1057 H   0  0  0  0  0  0  0  0  0  0  0  0
   -2.0584    0.0124    2.1305 H   0  0  0  0  0  0  0  0  0  0  0  0
   -3.6414    1.3180   -1.6722 H   0  0  0  0  0  0  0  0  0  0  0  0
    1.2150    0.1633   -1.0260 H   0  0  0  0  0  0  0  0  0  0  0  0
    4.4886    1.1397    1.6573 H   0  0  0  0  0  0  0  0  0  0  0  0
   -4.1937   -1.0290   -2.2862 H   0  0  0  0  0  0  0  0  0  0  0  0
    5.3351   -1.1863    1.4776 H   0  0  0  0  0  0  0  0  0  0  0  0
   -2.2747   -3.0237    2.4266 H   0  0  0  0  0  0  0  0  0  0  0  0
    1.3524   -2.7342   -1.8957 H   0  0  0  0  0  0  0  0  0  0  0  0
    4.6774   -3.6904    0.1614 H   0  0  0  0  0  0  0  0  0  0  0  0
   -3.3170   -4.8059    0.5957 H   0  0  0  0  0  0  0  0  0  0  0  0
  1 21  1  0  0  0  0
  1 26  1  0  0  0  0
  2  7  1  0  0  0  0
  2 10  1  0  0  0  0
  2 11  1  0  0  0  0
  3  6  1  0  0  0  0
  3 13  1  0  0  0  0
  3 38  1  0  0  0  0
  4  5  1  0  0  0  0
  4 22  1  0  0  0  0
  4 47  1  0  0  0  0
  5 25  2  0  0  0  0
  6  7  1  0  0  0  0
  6  8  1  0  0  0  0
  6 27  1  0  0  0  0
  7 28  1  0  0  0  0
  7 29  1  0  0  0  0
  8  9  1  0  0  0  0
  8 30  1  0  0  0  0
  8 31  1  0  0  0  0
  9 10  1  0  0  0  0
  9 32  1  0  0  0  0
  9 33  1  0  0  0  0
 10 34  1  0  0  0  0
 10 35  1  0  0  0  0
 11 12  1  0  0  0  0
 11 36  1  0  0  0  0
 11 37  1  0  0  0  0
 12 14  2  0  0  0  0
 12 15  1  0  0  0  0
 13 16  2  0  0  0  0
 13 17  1  0  0  0  0
 14 18  1  0  0  0  0
 14 39  1  0  0  0  0
 15 20  2  0  0  0  0
 15 40  1  0  0  0  0
 16 19  1  0  0  0  0
 16 41  1  0  0  0  0
 17 23  2  0  0  0  0
 17 42  1  0  0  0  0
 18 21  2  0  0  0  0
 18 24  1  0  0  0  0
 19 22  2  0  0  0  0
 19 25  1  0  0  0  0
 20 21  1  0  0  0  0
 20 43  1  0  0  0  0
 22 23  1  0  0  0  0
 23 44  1  0  0  0  0
 24 26  2  0  0  0  0
 24 45  1  0  0  0  0
 25 46  1  0  0  0  0
 26 48  1  0  0  0  0
M  END
> <PUBCHEM_COMPOUND_CID>
57446052

> <PUBCHEM_CONFORMER_RMSD>
0.8

> <PUBCHEM_CONFORMER_DIVERSEORDER>
1
350
117
127
170
56
215
208
234
113
221
248
277
73
34
260
204
351
129
137
167
93
166
109
244
288
17
242
256
190
212
265
184
57
41
32
354
281
342
40
280
320
78
205
349
336
27
258
68
323
133
92
358
140
81
295
176
235
19
182
310
49
225
332
329
199
8
324
210
197
145
58
100
206
98
135
119
11
274
278
54
276
147
275
126
102
165
335
158
134
130
66
84
271
168
112
224
355
262
216
290
65
55
318
195
201
333
70
101
173
327
91
289
264
311
340
48
186
307
164
26
305
223
88
161
325
194
263
309
62
285
321
104
150
156
301
29
298
360
121
247
343
222
172
297
139
254
313
79
339
232
315
219
294
287
207
82
338
60
357
141
337
317
220
268
188
353
326
53
179
279
30
334
239
240
155
293
306
314
193
214
346
128
95
151
253
136
38
300
286
341
83
269
189
72
157
47
90
347
203
149
249
69
103
202
52
2
226
299
80
24
125
227
110
116
187
114
272
142
14
328
308
152
257
270
348
251
5
28
39
304
162
261
291
61
171
16
273
107
345
35
3
120
97
245
9
330
67
99
64
344
356
131
255
122
85
4
218
148
236
23
46
159
229
312
267
282
153
209
175
250
185
213
196
36
43
86
7
359
319
352
63
71
183
138
22
89
296
31
246
44
200
37
132
13
18
228
243
284
259
331
118
191
292
76
241
42
21
252
87
217
94
302
316
163
178
77
144
177
180
6
50
106
238
75
115
283
174
303
96
25
237
169
105
198
233
33
322
146
230
15
74
124
154
231
51
45
59
123
10
266
160
111
181
192
108
211
20
12
143

> <PUBCHEM_MMFF94_PARTIAL_CHARGES>
33
1 -0.28
10 0.27
11 0.41
12 -0.14
13 0.1
14 -0.15
15 -0.15
16 -0.15
17 -0.15
2 -0.81
20 -0.15
21 0.14
22 -0.15
23 -0.15
24 -0.15
25 0.14
26 -0.01
3 -0.87
38 0.4
39 0.15
4 0.3
40 0.15
41 0.15
42 0.15
43 0.15
44 0.15
45 0.15
46 0.15
47 0.27
48 0.15
5 -0.71
6 0.37
7 0.27

> <PUBCHEM_EFFECTIVE_ROTOR_COUNT>
5.2

> <PUBCHEM_PHARMACOPHORE_FEATURES>
11
1 1 acceptor
1 2 cation
1 3 cation
1 3 donor
1 4 donor
1 5 acceptor
5 1 18 21 24 26 rings
5 4 5 19 22 25 rings
6 12 14 15 18 20 21 rings
6 13 16 17 19 22 23 rings
6 2 6 7 8 9 10 rings

> <PUBCHEM_HEAVY_ATOM_COUNT>
26

> <PUBCHEM_ATOM_DEF_STEREO_COUNT>
0

> <PUBCHEM_ATOM_UDEF_STEREO_COUNT>
1

> <PUBCHEM_BOND_DEF_STEREO_COUNT>
0

> <PUBCHEM_BOND_UDEF_STEREO_COUNT>
0

> <PUBCHEM_ISOTOPIC_ATOM_COUNT>
0

> <PUBCHEM_COMPONENT_COUNT>
1

> <PUBCHEM_CACTVS_TAUTO_COUNT>
2

> <PUBCHEM_CONFORMER_ID>
036C8EA400000001

> <PUBCHEM_MMFF94_ENERGY>
56.8376

> <PUBCHEM_FEATURE_SELFOVERLAP>
56.015

> <PUBCHEM_SHAPE_FINGERPRINT>
10940486 97 17829625963598862508
11014199 57 18410862074420242595
11285246 1 17903315322734133885
12156800 1 14361366053653650264
12553582 1 18338250313600129341
13122387 1 16321475160522161070
1361 2 16969702776823350195
138480 1 15023303694561635681
140371 6 18410285930517848125
14251757 5 17834983891897872846
14659021 117 18193262010666142218
14725015 67 17979071579282151663
15927050 60 17042882392376138477
16719943 64 17328028663854330754
19315092 285 16556190571136803639
19930381 70 18122344850673108187
20775530 9 18335140946409191835
21133410 52 17693077975465492602
21133410 62 16175641027756480606
23559900 14 18193545886482189337
23572383 38 18266436828328451786
3027735 51 17690273816517960957
3493558 16 9287413302184596321
4280585 95 18262220188815668776
445580 102 18049162464587163891
463206 1 18409451366626230576
469060 322 17625778942480726510
5265222 85 17328332155260097716
5309563 4 18123192569732191427
550186 72 18408603657070412980
613672 6 18337936969971129747
9709674 26 18341047407014956530

> <PUBCHEM_SHAPE_MULTIPOLES>
509.27
8.47
6.6
1.18
1.41
4.03
0
-8.25
0.52
0.05
-1.14
-0.33
-0.5
0.98

> <PUBCHEM_SHAPE_SELFOVERLAP>
1131.141

> <PUBCHEM_SHAPE_VOLUME>
275

> <PUBCHEM_COORDINATE_TYPE>
2
5
10

$$$$
44595810
  -OEChem-05102415113D

 51 55  0     1  0  0  0  0  0999 V2000
   -2.9087   -1.7169    1.6326 O   0  0  0  0  0  0  0  0  0  0  0  0
   -4.2849   -1.9345   -0.8911 O   0  0  0  0  0  0  0  0  0  0  0  0
   -0.4368    3.0640   -0.0826 N   0  0  2  0  0  0  0  0  0  0  0  0
    2.9415    1.5620    0.4837 N   0  0  0  0  0  0  0  0  0  0  0  0
    3.1733   -3.8649   -0.2301 N   0  0  0  0  0  0  0  0  0  0  0  0
    2.1668   -4.1246   -1.0812 N   0  0  0  0  0  0  0  0  0  0  0  0
    1.9338    2.3509   -0.1941 C   0  0  1  0  0  0  0  0  0  0  0  0
    0.5944    2.2239    0.5439 C   0  0  0  0  0  0  0  0  0  0  0  0
    2.3836    3.8108   -0.2609 C   0  0  0  0  0  0  0  0  0  0  0  0
    1.2735    4.6845   -0.8346 C   0  0  0  0  0  0  0  0  0  0  0  0
   -0.0413    4.4791   -0.0813 C   0  0  0  0  0  0  0  0  0  0  0  0
   -1.7207    2.8910    0.5967 C   0  0  0  0  0  0  0  0  0  0  0  0
   -2.3881    1.5971    0.2132 C   0  0  0  0  0  0  0  0  0  0  0  0
    3.0571    0.1902    0.3490 C   0  0  0  0  0  0  0  0  0  0  0  0
   -2.3678    0.5160    1.0946 C   0  0  0  0  0  0  0  0  0  0  0  0
   -3.0212    1.4793   -1.0245 C   0  0  0  0  0  0  0  0  0  0  0  0
    2.1633   -0.4969   -0.4821 C   0  0  0  0  0  0  0  0  0  0  0  0
    4.0608   -0.4896    1.0415 C   0  0  0  0  0  0  0  0  0  0  0  0
   -2.9798   -0.6848    0.7339 C   0  0  0  0  0  0  0  0  0  0  0  0
    2.2973   -1.8898   -0.6057 C   0  0  0  0  0  0  0  0  0  0  0  0
   -3.6372   -0.7938   -0.4940 C   0  0  0  0  0  0  0  0  0  0  0  0
   -3.6451    0.2833   -1.3804 C   0  0  0  0  0  0  0  0  0  0  0  0
    3.3057   -2.5419    0.0953 C   0  0  0  0  0  0  0  0  0  0  0  0
    4.2070   -1.8761    0.9288 C   0  0  0  0  0  0  0  0  0  0  0  0
   -3.2513   -2.9699    1.0341 C   0  0  0  0  0  0  0  0  0  0  0  0
   -4.5113   -2.8275    0.2028 C   0  0  0  0  0  0  0  0  0  0  0  0
    1.6361   -2.9207   -1.3072 C   0  0  0  0  0  0  0  0  0  0  0  0
    1.8223    2.0261   -1.2371 H   0  0  0  0  0  0  0  0  0  0  0  0
    0.2790    1.1773    0.5413 H   0  0  0  0  0  0  0  0  0  0  0  0
    0.7268    2.5013    1.5997 H   0  0  0  0  0  0  0  0  0  0  0  0
    2.6465    4.1733    0.7417 H   0  0  0  0  0  0  0  0  0  0  0  0
    3.2885    3.9045   -0.8734 H   0  0  0  0  0  0  0  0  0  0  0  0
    1.1309    4.4452   -1.8961 H   0  0  0  0  0  0  0  0  0  0  0  0
    1.5690    5.7385   -0.7821 H   0  0  0  0  0  0  0  0  0  0  0  0
   -0.8110    5.0828   -0.5775 H   0  0  0  0  0  0  0  0  0  0  0  0
    0.0579    4.8556    0.9454 H   0  0  0  0  0  0  0  0  0  0  0  0
   -1.6188    2.9743    1.6874 H   0  0  0  0  0  0  0  0  0  0  0  0
   -2.4146    3.6948    0.3120 H   0  0  0  0  0  0  0  0  0  0  0  0
    3.5511    2.0242    1.1497 H   0  0  0  0  0  0  0  0  0  0  0  0
   -1.8685    0.5997    2.0568 H   0  0  0  0  0  0  0  0  0  0  0  0
   -3.0385    2.3147   -1.7196 H   0  0  0  0  0  0  0  0  0  0  0  0
    1.3730   -0.0192   -1.0475 H   0  0  0  0  0  0  0  0  0  0  0  0
    4.7496    0.0551    1.6843 H   0  0  0  0  0  0  0  0  0  0  0  0
   -4.1432    0.2030   -2.3427 H   0  0  0  0  0  0  0  0  0  0  0  0
    4.9859   -2.4057    1.4658 H   0  0  0  0  0  0  0  0  0  0  0  0
   -2.4033   -3.3118    0.4278 H   0  0  0  0  0  0  0  0  0  0  0  0
   -3.4078   -3.6925    1.8411 H   0  0  0  0  0  0  0  0  0  0  0  0
   -5.3484   -2.4451    0.7998 H   0  0  0  0  0  0  0  0  0  0  0  0
   -4.8033   -3.7966   -0.2137 H   0  0  0  0  0  0  0  0  0  0  0  0
    0.7886   -2.8428   -1.9735 H   0  0  0  0  0  0  0  0  0  0  0  0
    3.7373   -4.6407    0.0939 H   0  0  0  0  0  0  0  0  0  0  0  0
  1 19  1  0  0  0  0
  1 25  1  0  0  0  0
  2 21  1  0  0  0  0
  2 26  1  0  0  0  0
  3  8  1  0  0  0  0
  3 11  1  0  0  0  0
  3 12  1  0  0  0  0
  4  7  1  0  0  0  0
  4 14  1  0  0  0  0
  4 39  1  0  0  0  0
  5  6  1  0  0  0  0
  5 23  1  0  0  0  0
  5 51  1  0  0  0  0
  6 27  2  0  0  0  0
  7  8  1  0  0  0  0
  7  9  1  0  0  0  0
  7 28  1  0  0  0  0
  8 29  1  0  0  0  0
  8 30  1  0  0  0  0
  9 10  1  0  0  0  0
  9 31  1  0  0  0  0
  9 32  1  0  0  0  0
 10 11  1  0  0  0  0
 10 33  1  0  0  0  0
 10 34  1  0  0  0  0
 11 35  1  0  0  0  0
 11 36  1  0  0  0  0
 12 13  1  0  0  0  0
 12 37  1  0  0  0  0
 12 38  1  0  0  0  0
 13 15  2  0  0  0  0
 13 16  1  0  0  0  0
 14 17  2  0  0  0  0
 14 18  1  0  0  0  0
 15 19  1  0  0  0  0
 15 40  1  0  0  0  0
 16 22  2  0  0  0  0
 16 41  1  0  0  0  0
 17 20  1  0  0  0  0
 17 42  1  0  0  0  0
 18 24  2  0  0  0  0
 18 43  1  0  0  0  0
 19 21  2  0  0  0  0
 20 23  2  0  0  0  0
 20 27  1  0  0  0  0
 21 22  1  0  0  0  0
 22 44  1  0  0  0  0
 23 24  1  0  0  0  0
 24 45  1  0  0  0  0
 25 26  1  0  0  0  0
 25 46  1  0  0  0  0
 25 47  1  0  0  0  0
 26 48  1  0  0  0  0
 26 49  1  0  0  0  0
 27 50  1  0  0  0  0
M  END
> <PUBCHEM_COMPOUND_CID>
44595810

> <PUBCHEM_CONFORMER_RMSD>
0.8

> <PUBCHEM_CONFORMER_DIVERSEORDER>
1
120
70
237
241
236
119
291
255
151
270
354
399
100
85
131
333
44
324
259
326
339
208
122
338
167
267
231
98
113
233
148
81
294
232
202
56
271
243
299
327
251
63
329
248
96
385
337
149
360
158
156
154
346
257
367
336
234
245
351
369
320
125
184
313
378
48
82
99
318
246
357
284
285
79
393
170
256
168
118
134
92
381
2
289
254
80
193
6
77
373
42
230
25
225
157
258
361
141
335
130
110
162
218
177
263
78
343
372
394
332
53
288
319
107
91
222
211
88
129
262
370
317
266
61
229
376
111
334
209
176
395
3
325
180
8
286
322
282
304
287
132
172
76
187
13
47
30
303
364
252
169
305
41
206
50
273
143
390
275
396
264
14
244
116
174
123
139
136
152
302
260
212
223
128
185
58
33
226
312
311
43
331
144
186
210
316
104
127
60
83
383
73
268
363
365
207
62
9
280
387
221
68
384
145
121
352
59
300
297
195
4
64
277
147
40
392
249
16
350
391
5
165
295
155
203
11
38
106
67
328
379
349
235
74
197
314
160
375
179
190
269
183
175
238
215
283
310
89
278
228
307
10
101
198
28
386
330
348
35
377
137
75
281
166
135
388
358
205
342
356
173
353
308
296
362
220
196
279
102
18
274
15
39
374
65
341
108
140
247
347
261
224
239
36
359
199
219
161
366
201
371
66
213
344
250
133
163
398
45
55
20
69
240
138
49
321
178
52
31
93
389
293
242
29
191
306
200
126
192
72
355
301
272
368
51
290
32
142
26
105
217
340
150
87
253
216
86
188
276
94
22
298
227
109
7
37
309
153
397
345
146
315
214
34
114
103
27
21
194
95
19
380
124
159
84
57
54
117
112
71
181
24
23
164
171
115
189
265
382
204
182
97
12
292
46
17
323
90

> <PUBCHEM_MMFF94_PARTIAL_CHARGES>
33
1 -0.36
11 0.27
12 0.41
13 -0.14
14 0.1
15 -0.15
16 -0.15
17 -0.15
18 -0.15
19 0.08
2 -0.36
21 0.08
22 -0.15
23 -0.15
24 -0.15
25 0.28
26 0.28
27 0.14
3 -0.81
39 0.4
4 -0.87
40 0.15
41 0.15
42 0.15
43 0.15
44 0.15
45 0.15
5 0.3
50 0.15
51 0.27
6 -0.71
7 0.37
8 0.27

> <PUBCHEM_EFFECTIVE_ROTOR_COUNT>
6

> <PUBCHEM_PHARMACOPHORE_FEATURES>
12
1 1 acceptor
1 2 acceptor
1 3 cation
1 4 cation
1 4 donor
1 5 donor
1 6 acceptor
5 5 6 20 23 27 rings
6 1 2 19 21 25 26 rings
6 13 15 16 19 21 22 rings
6 14 17 18 20 23 24 rings
6 3 7 8 9 10 11 rings

> <PUBCHEM_HEAVY_ATOM_COUNT>
27

> <PUBCHEM_ATOM_DEF_STEREO_COUNT>
0

> <PUBCHEM_ATOM_UDEF_STEREO_COUNT>
1

> <PUBCHEM_BOND_DEF_STEREO_COUNT>
0

> <PUBCHEM_BOND_UDEF_STEREO_COUNT>
0

> <PUBCHEM_ISOTOPIC_ATOM_COUNT>
0

> <PUBCHEM_COMPONENT_COUNT>
1

> <PUBCHEM_CACTVS_TAUTO_COUNT>
2

> <PUBCHEM_CONFORMER_ID>
02A87A6200000001

> <PUBCHEM_MMFF94_ENERGY>
73.4523

> <PUBCHEM_FEATURE_SELFOVERLAP>
61.03

> <PUBCHEM_SHAPE_FINGERPRINT>
10940486 97 17470184561544256030
11014199 57 18339646641827517930
11285246 1 17686019870254717901
12156800 1 13860066782590926848
12553582 1 18266755600980846740
13122387 1 18412829070636600142
1361 2 17546163469018194107
138480 1 18410575114833611396
140371 6 18338509742589474060
14251757 5 17475821761459205398
14659021 117 17905314144573160042
14725015 67 17547007425548483695
16719943 64 16752131905060081670
17138139 8 16477676803650223031
19315092 285 16699733961589548797
19930381 70 18338797939574540147
20764821 26 18336838476330127074
20775530 9 18334861605909797475
21133410 52 18053364777376892902
21133410 62 16823314897955068655
23559900 14 18337099168213124497
23572383 38 18265873818345747666
4280585 95 18261940852832742440
445580 102 18337674246985436555
463206 1 18265899064211252696
469060 322 17768485613180294254
5265222 85 16753279821564525870
5309563 4 18339926038330357099
613672 6 18265878212012895310
6433294 58 18120090847329820187
9709674 26 18125156044043412434

> <PUBCHEM_SHAPE_MULTIPOLES>
523.98
8.66
6.83
1.21
3.38
3.25
0.01
-7.73
-0.66
-3.6
1.26
0.45
-0.49
0.71

> <PUBCHEM_SHAPE_SELFOVERLAP>
1152.113

> <PUBCHEM_SHAPE_VOLUME>
282.7

> <PUBCHEM_COORDINATE_TYPE>
2
5
10

$$$$
44595811
  -OEChem-05102415113D

 48 52  0     1  0  0  0  0  0999 V2000
   -3.8262   -3.3596   -0.6758 S   0  0  0  0  0  0  0  0  0  0  0  0
   -1.2138    2.7803   -0.0905 N   0  0  2  0  0  0  0  0  0  0  0  0
    2.4113    2.0526    0.4747 N   0  0  0  0  0  0  0  0  0  0  0  0
    3.8139   -3.2011   -0.1927 N   0  0  0  0  0  0  0  0  0  0  0  0
    2.8858   -3.6811   -1.0372 N   0  0  0  0  0  0  0  0  0  0  0  0
    1.2548    2.5976   -0.2057 C   0  0  1  0  0  0  0  0  0  0  0  0
   -0.0234    2.1899    0.5390 C   0  0  0  0  0  0  0  0  0  0  0  0
    1.3769    4.1197   -0.2872 C   0  0  0  0  0  0  0  0  0  0  0  0
    0.1024    4.7261   -0.8637 C   0  0  0  0  0  0  0  0  0  0  0  0
   -1.1348    4.2474   -0.1032 C   0  0  0  0  0  0  0  0  0  0  0  0
   -2.4281    2.3392    0.5956 C   0  0  0  0  0  0  0  0  0  0  0  0
   -2.7995    0.9277    0.2262 C   0  0  0  0  0  0  0  0  0  0  0  0
    2.8215    0.7374    0.3515 C   0  0  0  0  0  0  0  0  0  0  0  0
   -2.5449   -0.1138    1.1225 C   0  0  0  0  0  0  0  0  0  0  0  0
   -3.3913    0.6667   -1.0013 C   0  0  0  0  0  0  0  0  0  0  0  0
    2.0963   -0.1351   -0.4698 C   0  0  0  0  0  0  0  0  0  0  0  0
    3.9503    0.2982    1.0457 C   0  0  0  0  0  0  0  0  0  0  0  0
   -2.8881   -1.4464    0.7888 C   0  0  0  0  0  0  0  0  0  0  0  0
    2.5293   -1.4668   -0.5817 C   0  0  0  0  0  0  0  0  0  0  0  0
   -3.7416   -0.6365   -1.3596 C   0  0  0  0  0  0  0  0  0  0  0  0
   -3.4838   -1.6842   -0.4538 C   0  0  0  0  0  0  0  0  0  0  0  0
    3.6566   -1.8779    0.1207 C   0  0  0  0  0  0  0  0  0  0  0  0
    4.3937   -1.0245    0.9445 C   0  0  0  0  0  0  0  0  0  0  0  0
   -2.7290   -2.6650    1.5304 C   0  0  0  0  0  0  0  0  0  0  0  0
    2.1060   -2.6233   -1.2715 C   0  0  0  0  0  0  0  0  0  0  0  0
   -3.1942   -3.7676    0.8539 C   0  0  0  0  0  0  0  0  0  0  0  0
    1.2142    2.2465   -1.2453 H   0  0  0  0  0  0  0  0  0  0  0  0
   -0.1043    1.0999    0.5469 H   0  0  0  0  0  0  0  0  0  0  0  0
    0.0480    2.4995    1.5918 H   0  0  0  0  0  0  0  0  0  0  0  0
    1.5571    4.5400    0.7112 H   0  0  0  0  0  0  0  0  0  0  0  0
    2.2385    4.4017   -0.9042 H   0  0  0  0  0  0  0  0  0  0  0  0
    0.0128    4.4516   -1.9225 H   0  0  0  0  0  0  0  0  0  0  0  0
    0.1621    5.8196   -0.8217 H   0  0  0  0  0  0  0  0  0  0  0  0
   -2.0183    4.6650   -0.6015 H   0  0  0  0  0  0  0  0  0  0  0  0
   -1.1176    4.6461    0.9197 H   0  0  0  0  0  0  0  0  0  0  0  0
   -2.3439    2.4530    1.6852 H   0  0  0  0  0  0  0  0  0  0  0  0
   -3.2804    2.9710    0.3075 H   0  0  0  0  0  0  0  0  0  0  0  0
    2.9074    2.6424    1.1341 H   0  0  0  0  0  0  0  0  0  0  0  0
   -2.0806    0.0914    2.0844 H   0  0  0  0  0  0  0  0  0  0  0  0
   -3.5904    1.4746   -1.7015 H   0  0  0  0  0  0  0  0  0  0  0  0
    1.2199    0.1543   -1.0360 H   0  0  0  0  0  0  0  0  0  0  0  0
    4.5059    0.9854    1.6808 H   0  0  0  0  0  0  0  0  0  0  0  0
   -4.2046   -0.8315   -2.3228 H   0  0  0  0  0  0  0  0  0  0  0  0
    5.2702   -1.3674    1.4829 H   0  0  0  0  0  0  0  0  0  0  0  0
   -2.2905   -2.7235    2.5190 H   0  0  0  0  0  0  0  0  0  0  0  0
    1.2603   -2.7373   -1.9349 H   0  0  0  0  0  0  0  0  0  0  0  0
    4.5335   -3.8329    0.1357 H   0  0  0  0  0  0  0  0  0  0  0  0
   -3.1911   -4.7950    1.1894 H   0  0  0  0  0  0  0  0  0  0  0  0
  1 21  1  0  0  0  0
  1 26  1  0  0  0  0
  2  7  1  0  0  0  0
  2 10  1  0  0  0  0
  2 11  1  0  0  0  0
  3  6  1  0  0  0  0
  3 13  1  0  0  0  0
  3 38  1  0  0  0  0
  4  5  1  0  0  0  0
  4 22  1  0  0  0  0
  4 47  1  0  0  0  0
  5 25  2  0  0  0  0
  6  7  1  0  0  0  0
  6  8  1  0  0  0  0
  6 27  1  0  0  0  0
  7 28  1  0  0  0  0
  7 29  1  0  0  0  0
  8  9  1  0  0  0  0
  8 30  1  0  0  0  0
  8 31  1  0  0  0  0
  9 10  1  0  0  0  0
  9 32  1  0  0  0  0
  9 33  1  0  0  0  0
 10 34  1  0  0  0  0
 10 35  1  0  0  0  0
 11 12  1  0  0  0  0
 11 36  1  0  0  0  0
 11 37  1  0  0  0  0
 12 14  2  0  0  0  0
 12 15  1  0  0  0  0
 13 16  2  0  0  0  0
 13 17  1  0  0  0  0
 14 18  1  0  0  0  0
 14 39  1  0  0  0  0
 15 20  2  0  0  0  0
 15 40  1  0  0  0  0
 16 19  1  0  0  0  0
 16 41  1  0  0  0  0
 17 23  2  0  0  0  0
 17 42  1  0  0  0  0
 18 21  2  0  0  0  0
 18 24  1  0  0  0  0
 19 22  2  0  0  0  0
 19 25  1  0  0  0  0
 20 21  1  0  0  0  0
 20 43  1  0  0  0  0
 22 23  1  0  0  0  0
 23 44  1  0  0  0  0
 24 26  2  0  0  0  0
 24 45  1  0  0  0  0
 25 46  1  0  0  0  0
 26 48  1  0  0  0  0
M  END
> <PUBCHEM_COMPOUND_CID>
44595811

> <PUBCHEM_CONFORMER_RMSD>
0.8

> <PUBCHEM_CONFORMER_DIVERSEORDER>
1
320
323
215
136
209
263
233
82
366
60
371
212
126
365
69
338
70
350
331
161
105
202
219
239
68
363
11
298
364
47
329
254
256
337
110
255
152
303
2
355
198
180
274
284
143
13
352
3
267
230
160
247
34
242
207
145
195
194
63
167
64
85
293
79
129
140
102
106
251
127
249
200
150
188
272
71
181
199
309
204
176
310
270
184
368
83
279
124
137
75
359
288
35
370
120
353
103
289
278
58
163
187
66
116
104
229
7
169
99
240
336
344
213
112
290
201
367
262
340
158
297
65
12
9
23
109
197
313
356
332
301
108
32
318
56
170
220
18
94
273
312
316
78
357
36
252
228
253
322
121
226
77
10
222
183
17
50
248
291
250
246
276
46
304
319
287
324
28
93
149
351
302
166
134
206
16
307
156
333
29
41
146
51
31
153
292
89
98
335
286
296
311
294
305
80
234
37
30
339
224
258
62
346
211
317
210
232
315
281
54
67
76
295
90
328
88
238
280
171
96
345
308
159
38
165
218
175
360
128
172
321
326
231
227
277
33
348
119
6
327
147
20
4
74
243
133
259
57
282
214
223
265
334
349
123
27
299
5
101
81
341
113
190
15
217
342
26
132
111
107
196
173
189
178
72
300
24
14
221
236
42
266
139
268
95
162
115
22
59
122
245
19
261
117
25
155
55
225
100
92
205
216
314
138
131
203
174
45
369
114
130
235
168
208
354
264
362
142
257
285
193
87
343
330
241
53
21
144
8
135
361
237
186
179
185
49
73
164
260
43
151
182
91
86
44
192
141
306
244
118
48
275
347
52
154
271
177
97
61
325
125
84
269
39
358
148
283
191
157
40

> <PUBCHEM_MMFF94_PARTIAL_CHARGES>
33
1 -0.08
10 0.27
11 0.41
12 -0.14
13 0.1
14 -0.15
15 -0.15
16 -0.15
17 -0.15
2 -0.81
20 -0.15
21 0.04
22 -0.15
23 -0.15
24 -0.15
25 0.14
26 -0.11
3 -0.87
38 0.4
39 0.15
4 0.3
40 0.15
41 0.15
42 0.15
43 0.15
44 0.15
45 0.15
46 0.15
47 0.27
48 0.15
5 -0.71
6 0.37
7 0.27

> <PUBCHEM_EFFECTIVE_ROTOR_COUNT>
5.2

> <PUBCHEM_PHARMACOPHORE_FEATURES>
10
1 2 cation
1 3 cation
1 3 donor
1 4 donor
1 5 acceptor
5 1 18 21 24 26 rings
5 4 5 19 22 25 rings
6 12 14 15 18 20 21 rings
6 13 16 17 19 22 23 rings
6 2 6 7 8 9 10 rings

> <PUBCHEM_HEAVY_ATOM_COUNT>
26

> <PUBCHEM_ATOM_DEF_STEREO_COUNT>
0

> <PUBCHEM_ATOM_UDEF_STEREO_COUNT>
1

> <PUBCHEM_BOND_DEF_STEREO_COUNT>
0

> <PUBCHEM_BOND_UDEF_STEREO_COUNT>
0

> <PUBCHEM_ISOTOPIC_ATOM_COUNT>
0

> <PUBCHEM_COMPONENT_COUNT>
1

> <PUBCHEM_CACTVS_TAUTO_COUNT>
2

> <PUBCHEM_CONFORMER_ID>
02A87A6300000001

> <PUBCHEM_MMFF94_ENERGY>
60.4046

> <PUBCHEM_FEATURE_SELFOVERLAP>
50.898

> <PUBCHEM_SHAPE_FINGERPRINT>
10940486 97 17829907434270166806
11014199 57 18411141346057468939
11285246 1 17903316409323936517
12156800 1 14289592129352298288
12553582 1 18338531775691977092
13122387 1 16249699037150145767
1361 2 17041759262764996947
138480 1 14951527571215922685
140371 6 18410567396878230917
14251757 5 17835265362569086206
14659021 117 18193543477026635442
14725015 67 17907013976627804927
15927050 60 16971107368510437189
16719943 64 17255971065500375466
19315092 285 16556189463029992463
19930381 70 18122625217585160155
20775530 9 18334579095983261491
21133410 52 17765698506545696270
21133410 62 16247417142517455799
23559900 14 18193264411526512713
23572383 38 18266717199498586867
3027735 51 17689993432452400437
4280585 95 18262220184504812288
445580 102 18121218946233804395
463206 1 18410014307989756208
469060 322 17697556161006228726
5265222 85 17256556031898560436
5309563 4 18123472940928654771
613672 6 18337935861890757419
9709674 26 18341047402693667434

> <PUBCHEM_SHAPE_MULTIPOLES>
518.99
8.59
6.78
1.22
2.08
3.64
-0.02
-8.13
-0.64
-2.61
1.35
0.52
-0.55
0.67

> <PUBCHEM_SHAPE_SELFOVERLAP>
1134.545

> <PUBCHEM_SHAPE_VOLUME>
284.4

> <PUBCHEM_COORDINATE_TYPE>
2
5
10

$$$$
25009705
  -OEChem-05102415113D

 49 52  0     1  0  0  0  0  0999 V2000
   -1.7334   -3.0203    2.3015 O   0  0  0  0  0  0  0  0  0  0  0  0
   -1.8555    2.3983   -0.0990 N   0  0  2  0  0  0  0  0  0  0  0  0
    1.8115    2.4270    0.6374 N   0  0  0  0  0  0  0  0  0  0  0  0
    4.3827   -2.3022   -0.3816 N   0  0  0  0  0  0  0  0  0  0  0  0
    3.6237   -2.8896   -1.3218 N   0  0  0  0  0  0  0  0  0  0  0  0
   -2.1885   -4.5144    0.6224 N   0  0  0  0  0  0  0  0  0  0  0  0
    0.5943    2.7702   -0.0682 C   0  0  2  0  0  0  0  0  0  0  0  0
    0.3773    4.2828   -0.0121 C   0  0  0  0  0  0  0  0  0  0  0  0
   -0.5928    2.0233    0.5544 C   0  0  0  0  0  0  0  0  0  0  0  0
   -0.9733    4.6499   -0.6170 C   0  0  0  0  0  0  0  0  0  0  0  0
   -2.1053    3.8414    0.0180 C   0  0  0  0  0  0  0  0  0  0  0  0
   -2.9702    1.6386    0.4668 C   0  0  0  0  0  0  0  0  0  0  0  0
   -3.0008    0.2228   -0.0443 C   0  0  0  0  0  0  0  0  0  0  0  0
    2.5100    1.2511    0.4300 C   0  0  0  0  0  0  0  0  0  0  0  0
    2.0354    0.3250   -0.5074 C   0  0  0  0  0  0  0  0  0  0  0  0
    3.6770    1.0048    1.1556 C   0  0  0  0  0  0  0  0  0  0  0  0
   -2.5645   -0.8225    0.7697 C   0  0  0  0  0  0  0  0  0  0  0  0
   -3.4665   -0.0436   -1.3318 C   0  0  0  0  0  0  0  0  0  0  0  0
    2.7603   -0.8623   -0.7038 C   0  0  0  0  0  0  0  0  0  0  0  0
    3.9193   -1.0825    0.0322 C   0  0  0  0  0  0  0  0  0  0  0  0
    4.4095   -0.1724    0.9713 C   0  0  0  0  0  0  0  0  0  0  0  0
   -2.5938   -2.1342    0.2961 C   0  0  0  0  0  0  0  0  0  0  0  0
   -3.4960   -1.3552   -1.8054 C   0  0  0  0  0  0  0  0  0  0  0  0
   -3.0596   -2.4005   -0.9915 C   0  0  0  0  0  0  0  0  0  0  0  0
    2.6377   -2.0107   -1.5151 C   0  0  0  0  0  0  0  0  0  0  0  0
   -2.1386   -3.2247    1.1436 C   0  0  0  0  0  0  0  0  0  0  0  0
    0.6796    2.5212   -1.1342 H   0  0  0  0  0  0  0  0  0  0  0  0
    0.4143    4.6333    1.0279 H   0  0  0  0  0  0  0  0  0  0  0  0
    1.1811    4.8044   -0.5456 H   0  0  0  0  0  0  0  0  0  0  0  0
   -0.6395    2.2372    1.6321 H   0  0  0  0  0  0  0  0  0  0  0  0
   -0.4289    0.9463    0.4647 H   0  0  0  0  0  0  0  0  0  0  0  0
   -0.9519    4.4666   -1.6988 H   0  0  0  0  0  0  0  0  0  0  0  0
   -1.1609    5.7207   -0.4785 H   0  0  0  0  0  0  0  0  0  0  0  0
   -3.0364    4.1027   -0.4995 H   0  0  0  0  0  0  0  0  0  0  0  0
   -2.2232    4.1331    1.0701 H   0  0  0  0  0  0  0  0  0  0  0  0
   -2.9628    1.6619    1.5651 H   0  0  0  0  0  0  0  0  0  0  0  0
   -3.9281    2.0939    0.1775 H   0  0  0  0  0  0  0  0  0  0  0  0
    2.1331    3.0435    1.3759 H   0  0  0  0  0  0  0  0  0  0  0  0
    1.1422    0.4692   -1.1022 H   0  0  0  0  0  0  0  0  0  0  0  0
    4.0362    1.7323    1.8810 H   0  0  0  0  0  0  0  0  0  0  0  0
   -2.2031   -0.6039    1.7718 H   0  0  0  0  0  0  0  0  0  0  0  0
   -3.8091    0.7622   -1.9756 H   0  0  0  0  0  0  0  0  0  0  0  0
    5.3161   -0.3655    1.5338 H   0  0  0  0  0  0  0  0  0  0  0  0
   -3.8588   -1.5614   -2.8082 H   0  0  0  0  0  0  0  0  0  0  0  0
   -3.1110   -3.3922   -1.4244 H   0  0  0  0  0  0  0  0  0  0  0  0
    1.8691   -2.2424   -2.2388 H   0  0  0  0  0  0  0  0  0  0  0  0
    5.2105   -2.7898   -0.0624 H   0  0  0  0  0  0  0  0  0  0  0  0
   -1.8828   -5.2937    1.1969 H   0  0  0  0  0  0  0  0  0  0  0  0
   -2.5064   -4.7702   -0.3033 H   0  0  0  0  0  0  0  0  0  0  0  0
  1 26  2  0  0  0  0
  2  9  1  0  0  0  0
  2 11  1  0  0  0  0
  2 12  1  0  0  0  0
  3  7  1  0  0  0  0
  3 14  1  0  0  0  0
  3 38  1  0  0  0  0
  4  5  1  0  0  0  0
  4 20  1  0  0  0  0
  4 47  1  0  0  0  0
  5 25  2  0  0  0  0
  6 26  1  0  0  0  0
  6 48  1  0  0  0  0
  6 49  1  0  0  0  0
  7  8  1  0  0  0  0
  7  9  1  0  0  0  0
  7 27  1  0  0  0  0
  8 10  1  0  0  0  0
  8 28  1  0  0  0  0
  8 29  1  0  0  0  0
  9 30  1  0  0  0  0
  9 31  1  0  0  0  0
 10 11  1  0  0  0  0
 10 32  1  0  0  0  0
 10 33  1  0  0  0  0
 11 34  1  0  0  0  0
 11 35  1  0  0  0  0
 12 13  1  0  0  0  0
 12 36  1  0  0  0  0
 12 37  1  0  0  0  0
 13 17  2  0  0  0  0
 13 18  1  0  0  0  0
 14 15  2  0  0  0  0
 14 16  1  0  0  0  0
 15 19  1  0  0  0  0
 15 39  1  0  0  0  0
 16 21  2  0  0  0  0
 16 40  1  0  0  0  0
 17 22  1  0  0  0  0
 17 41  1  0  0  0  0
 18 23  2  0  0  0  0
 18 42  1  0  0  0  0
 19 20  2  0  0  0  0
 19 25  1  0  0  0  0
 20 21  1  0  0  0  0
 21 43  1  0  0  0  0
 22 24  2  0  0  0  0
 22 26  1  0  0  0  0
 23 24  1  0  0  0  0
 23 44  1  0  0  0  0
 24 45  1  0  0  0  0
 25 46  1  0  0  0  0
M  END
> <PUBCHEM_COMPOUND_CID>
25009705

> <PUBCHEM_CONFORMER_RMSD>
1

> <PUBCHEM_CONFORMER_DIVERSEORDER>
1
256
191
155
254
279
83
89
253
149
199
111
268
76
167
110
123
257
87
185
154
213
214
67
219
23
56
45
94
170
267
116
75
252
247
78
147
5
190
162
15
127
246
30
59
183
39
141
233
132
188
262
51
25
206
142
40
175
169
74
70
118
229
35
260
144
283
2
245
271
4
95
64
125
60
236
66
38
62
197
50
98
261
193
232
113
42
117
241
99
202
10
278
100
239
221
156
207
275
220
146
204
215
93
249
248
166
19
269
211
270
203
265
57
276
8
226
159
52
242
97
153
131
41
266
200
217
140
234
133
17
157
195
22
277
90
28
129
273
168
120
194
163
172
240
178
115
119
201
231
250
173
208
122
53
158
7
223
244
192
43
71
107
65
109
227
210
238
160
32
196
88
184
112
101
161
152
139
272
29
198
181
189
126
24
3
182
251
48
104
96
37
259
171
114
102
258
69
33
137
164
20
6
124
27
218
26
85
186
49
55
237
264
79
138
46
230
47
281
82
212
63
228
187
243
31
179
103
148
61
222
36
209
54
263
77
13
274
21
86
135
84
282
177
216
91
130
44
224
92
235
180
143
34
72
165
150
80
176
16
106
134
151
174
108
18
225
145
205
9
280
255
128
136
121
68
58
73
11
81
14
12
105

> <PUBCHEM_MMFF94_PARTIAL_CHARGES>
35
1 -0.57
11 0.27
12 0.41
13 -0.14
14 0.1
15 -0.15
16 -0.15
17 -0.15
18 -0.15
2 -0.81
20 -0.15
21 -0.15
22 0.09
23 -0.15
24 -0.15
25 0.14
26 0.54
3 -0.87
38 0.4
39 0.15
4 0.3
40 0.15
41 0.15
42 0.15
43 0.15
44 0.15
45 0.15
46 0.15
47 0.27
48 0.37
49 0.37
5 -0.71
6 -0.8
7 0.37
9 0.27

> <PUBCHEM_EFFECTIVE_ROTOR_COUNT>
6.2

> <PUBCHEM_PHARMACOPHORE_FEATURES>
11
1 1 acceptor
1 2 cation
1 3 cation
1 3 donor
1 4 donor
1 5 acceptor
1 6 donor
5 4 5 19 20 25 rings
6 13 17 18 22 23 24 rings
6 14 15 16 19 20 21 rings
6 2 7 8 9 10 11 rings

> <PUBCHEM_HEAVY_ATOM_COUNT>
26

> <PUBCHEM_ATOM_DEF_STEREO_COUNT>
0

> <PUBCHEM_ATOM_UDEF_STEREO_COUNT>
1

> <PUBCHEM_BOND_DEF_STEREO_COUNT>
0

> <PUBCHEM_BOND_UDEF_STEREO_COUNT>
0

> <PUBCHEM_ISOTOPIC_ATOM_COUNT>
0

> <PUBCHEM_COMPONENT_COUNT>
1

> <PUBCHEM_CACTVS_TAUTO_COUNT>
4

> <PUBCHEM_CONFORMER_ID>
017D9E2900000001

> <PUBCHEM_MMFF94_ENERGY>
68.4802

> <PUBCHEM_FEATURE_SELFOVERLAP>
55.913

> <PUBCHEM_SHAPE_FINGERPRINT>
10764073 3 18117588222365195507
11828532 37 17172917711325060243
12202916 173 18050534573462737650
12553582 1 18338810012326702125
12788726 201 18337104545358951522
13122387 1 17043177061027424646
1361 2 16393523546556875707
140371 6 18338508763532089825
14251757 5 18122088436904176310
14363568 33 17616837847094200080
14659021 117 18337941299778166842
14725015 67 18267864978317462583
15322534 239 17472997098607373142
16719943 64 17760092821967011346
17627616 140 17183064644185172703
19315092 285 16197312200570996711
19930381 70 17834957847158322939
21987440 362 15660198322034523957
23559900 14 17977369857378527921
3298306 158 17328587215687102229
445580 102 17904764727623649926
469060 322 17483353738205208972
5265222 85 17760395205107945388
5309563 4 17834680778691145635
613672 6 18266723852424137890
7987 15 17972894823393942891
9709674 26 18413386527595511450

> <PUBCHEM_SHAPE_MULTIPOLES>
504.29
8.12
6.39
1.42
5.42
3.29
0.04
-5.98
-0.7
-3.03
0.29
-0.44
-1.25
1.68

> <PUBCHEM_SHAPE_SELFOVERLAP>
1098.355

> <PUBCHEM_SHAPE_VOLUME>
275.1

> <PUBCHEM_COORDINATE_TYPE>
2
5
10

$$$$
25009706
  -OEChem-05102415113D

 50 53  0     1  0  0  0  0  0999 V2000
   -2.5881   -2.9309    1.0737 S   0  0  0  0  0  0  0  0  0  0  0  0
   -2.6714   -2.5525    2.4774 O   0  0  0  0  0  0  0  0  0  0  0  0
   -3.4240   -4.0092    0.5644 O   0  0  0  0  0  0  0  0  0  0  0  0
   -1.3218    2.8306   -0.0877 N   0  0  2  0  0  0  0  0  0  0  0  0
    2.2714    2.1713    0.7151 N   0  0  0  0  0  0  0  0  0  0  0  0
    3.9799   -2.9005   -0.4565 N   0  0  0  0  0  0  0  0  0  0  0  0
    3.1522   -3.3053   -1.4341 N   0  0  0  0  0  0  0  0  0  0  0  0
   -0.9585   -3.2726    0.6905 N   0  0  0  0  0  0  0  0  0  0  0  0
    1.1534    2.7546    0.0028 C   0  0  1  0  0  0  0  0  0  0  0  0
   -0.1635    2.2100    0.5718 C   0  0  0  0  0  0  0  0  0  0  0  0
    1.2092    4.2782    0.1188 C   0  0  0  0  0  0  0  0  0  0  0  0
   -0.0382    4.9051   -0.4942 C   0  0  0  0  0  0  0  0  0  0  0  0
   -1.3123    4.2896    0.0857 C   0  0  0  0  0  0  0  0  0  0  0  0
   -2.5684    2.2626    0.4253 C   0  0  0  0  0  0  0  0  0  0  0  0
   -2.8388    0.8959   -0.1455 C   0  0  0  0  0  0  0  0  0  0  0  0
    2.7533    0.8979    0.4708 C   0  0  0  0  0  0  0  0  0  0  0  0
   -2.6161   -0.2412    0.6311 C   0  0  0  0  0  0  0  0  0  0  0  0
    2.1445    0.1088   -0.5133 C   0  0  0  0  0  0  0  0  0  0  0  0
   -3.3120    0.7669   -1.4513 C   0  0  0  0  0  0  0  0  0  0  0  0
    3.8387    0.4182    1.2062 C   0  0  0  0  0  0  0  0  0  0  0  0
   -2.8668   -1.5071    0.1020 C   0  0  0  0  0  0  0  0  0  0  0  0
    2.6501   -1.1811   -0.7467 C   0  0  0  0  0  0  0  0  0  0  0  0
    3.7319   -1.6341    0.0001 C   0  0  0  0  0  0  0  0  0  0  0  0
    4.3532   -0.8636    0.9854 C   0  0  0  0  0  0  0  0  0  0  0  0
   -3.5627   -0.4990   -1.9805 C   0  0  0  0  0  0  0  0  0  0  0  0
   -3.3401   -1.6360   -1.2038 C   0  0  0  0  0  0  0  0  0  0  0  0
    2.3445   -2.2568   -1.6078 C   0  0  0  0  0  0  0  0  0  0  0  0
    1.2197    2.5353   -1.0711 H   0  0  0  0  0  0  0  0  0  0  0  0
   -0.1927    1.1253    0.4397 H   0  0  0  0  0  0  0  0  0  0  0  0
   -0.1983    2.3873    1.6566 H   0  0  0  0  0  0  0  0  0  0  0  0
    1.2820    4.5763    1.1732 H   0  0  0  0  0  0  0  0  0  0  0  0
    2.1066    4.6669   -0.3776 H   0  0  0  0  0  0  0  0  0  0  0  0
   -0.0226    4.7626   -1.5822 H   0  0  0  0  0  0  0  0  0  0  0  0
   -0.0346    5.9861   -0.3140 H   0  0  0  0  0  0  0  0  0  0  0  0
   -2.1682    4.7336   -0.4370 H   0  0  0  0  0  0  0  0  0  0  0  0
   -1.4026    4.5571    1.1468 H   0  0  0  0  0  0  0  0  0  0  0  0
   -3.4217    2.8934    0.1385 H   0  0  0  0  0  0  0  0  0  0  0  0
   -2.5847    2.2420    1.5237 H   0  0  0  0  0  0  0  0  0  0  0  0
    2.6793    2.6911    1.4846 H   0  0  0  0  0  0  0  0  0  0  0  0
   -2.2408   -0.1320    1.6453 H   0  0  0  0  0  0  0  0  0  0  0  0
    1.3068    0.4337   -1.1174 H   0  0  0  0  0  0  0  0  0  0  0  0
   -3.4888    1.6452   -2.0666 H   0  0  0  0  0  0  0  0  0  0  0  0
    4.3038    1.0407    1.9680 H   0  0  0  0  0  0  0  0  0  0  0  0
    5.1961   -1.2380    1.5555 H   0  0  0  0  0  0  0  0  0  0  0  0
   -3.9295   -0.5993   -2.9978 H   0  0  0  0  0  0  0  0  0  0  0  0
   -3.5357   -2.6122   -1.6385 H   0  0  0  0  0  0  0  0  0  0  0  0
    1.5649   -2.3188   -2.3540 H   0  0  0  0  0  0  0  0  0  0  0  0
    4.6989   -3.5408   -0.1433 H   0  0  0  0  0  0  0  0  0  0  0  0
   -0.2511   -3.1012    1.4155 H   0  0  0  0  0  0  0  0  0  0  0  0
   -0.7672   -4.0976    0.1089 H   0  0  0  0  0  0  0  0  0  0  0  0
  1  2  2  0  0  0  0
  1  3  2  0  0  0  0
  1  8  1  0  0  0  0
  1 21  1  0  0  0  0
  4 10  1  0  0  0  0
  4 13  1  0  0  0  0
  4 14  1  0  0  0  0
  5  9  1  0  0  0  0
  5 16  1  0  0  0  0
  5 39  1  0  0  0  0
  6  7  1  0  0  0  0
  6 23  1  0  0  0  0
  6 48  1  0  0  0  0
  7 27  2  0  0  0  0
  8 49  1  0  0  0  0
  8 50  1  0  0  0  0
  9 10  1  0  0  0  0
  9 11  1  0  0  0  0
  9 28  1  0  0  0  0
 10 29  1  0  0  0  0
 10 30  1  0  0  0  0
 11 12  1  0  0  0  0
 11 31  1  0  0  0  0
 11 32  1  0  0  0  0
 12 13  1  0  0  0  0
 12 33  1  0  0  0  0
 12 34  1  0  0  0  0
 13 35  1  0  0  0  0
 13 36  1  0  0  0  0
 14 15  1  0  0  0  0
 14 37  1  0  0  0  0
 14 38  1  0  0  0  0
 15 17  2  0  0  0  0
 15 19  1  0  0  0  0
 16 18  2  0  0  0  0
 16 20  1  0  0  0  0
 17 21  1  0  0  0  0
 17 40  1  0  0  0  0
 18 22  1  0  0  0  0
 18 41  1  0  0  0  0
 19 25  2  0  0  0  0
 19 42  1  0  0  0  0
 20 24  2  0  0  0  0
 20 43  1  0  0  0  0
 21 26  2  0  0  0  0
 22 23  2  0  0  0  0
 22 27  1  0  0  0  0
 23 24  1  0  0  0  0
 24 44  1  0  0  0  0
 25 26  1  0  0  0  0
 25 45  1  0  0  0  0
 26 46  1  0  0  0  0
 27 47  1  0  0  0  0
M  END
> <PUBCHEM_COMPOUND_CID>
25009706

> <PUBCHEM_CONFORMER_RMSD>
1

> <PUBCHEM_CONFORMER_DIVERSEORDER>
1
13
358
114
288
69
205
278
141
30
242
71
136
382
262
390
162
305
186
6
222
63
74
291
256
195
322
370
249
188
62
170
160
93
403
156
55
326
259
47
213
270
414
330
223
184
273
374
227
319
165
286
137
287
350
254
299
314
397
200
406
317
333
203
245
218
400
313
283
106
116
351
289
255
295
420
214
147
2
323
22
416
112
378
298
336
357
145
210
168
359
228
253
209
15
407
3
388
166
260
373
263
142
226
348
42
275
173
366
77
411
190
107
353
73
279
149
98
90
369
265
81
131
334
363
53
132
393
140
196
49
294
75
161
354
164
386
250
215
413
356
82
267
392
72
340
252
391
410
172
48
185
191
38
178
300
220
315
171
20
155
70
321
21
9
240
309
117
385
280
24
76
36
281
208
119
217
325
332
189
328
318
123
271
221
331
224
11
67
180
225
25
43
329
54
68
389
212
237
163
138
365
211
113
360
297
324
60
361
419
37
290
35
128
104
372
187
401
7
339
5
103
154
284
230
120
285
219
151
125
207
181
239
381
32
39
46
105
307
412
97
272
176
143
88
282
304
29
28
50
102
130
157
338
335
269
367
402
139
121
66
40
4
133
246
293
134
198
194
135
344
244
17
33
150
64
380
94
202
276
100
352
193
96
327
192
216
124
398
146
201
261
19
258
362
243
127
384
409
395
231
16
377
59
122
383
257
296
232
316
84
41
342
91
343
110
10
247
394
8
301
87
306
415
277
18
241
364
14
337
183
101
417
408
346
175
418
89
349
174
92
152
303
115
312
80
405
159
177
387
292
78
268
311
45
167
399
148
379
233
23
129
310
27
44
229
248
126
182
86
251
235
52
234
236
83
95
197
34
99
302
65
26
341
238
61
179
355
57
79
169
264
31
347
153
204
85
118
308
266
345
109
58
199
404
396
111
376
371
158
274
320
108
51
368
56
206
144
12
375

> <PUBCHEM_MMFF94_PARTIAL_CHARGES>
36
1 1.45
10 0.27
13 0.27
14 0.41
15 -0.14
16 0.1
17 -0.15
18 -0.15
19 -0.15
2 -0.65
20 -0.15
21 -0.01
23 -0.15
24 -0.15
25 -0.15
26 -0.15
27 0.14
3 -0.65
39 0.4
4 -0.81
40 0.15
41 0.15
42 0.15
43 0.15
44 0.15
45 0.15
46 0.15
47 0.15
48 0.27
49 0.42
5 -0.87
50 0.42
6 0.3
7 -0.71
8 -0.98
9 0.37

> <PUBCHEM_EFFECTIVE_ROTOR_COUNT>
6.2

> <PUBCHEM_PHARMACOPHORE_FEATURES>
12
1 2 acceptor
1 3 acceptor
1 4 cation
1 5 cation
1 5 donor
1 6 donor
1 7 acceptor
1 8 donor
5 6 7 22 23 27 rings
6 15 17 19 21 25 26 rings
6 16 18 20 22 23 24 rings
6 4 9 10 11 12 13 rings

> <PUBCHEM_HEAVY_ATOM_COUNT>
27

> <PUBCHEM_ATOM_DEF_STEREO_COUNT>
0

> <PUBCHEM_ATOM_UDEF_STEREO_COUNT>
1

> <PUBCHEM_BOND_DEF_STEREO_COUNT>
0

> <PUBCHEM_BOND_UDEF_STEREO_COUNT>
0

> <PUBCHEM_ISOTOPIC_ATOM_COUNT>
0

> <PUBCHEM_COMPONENT_COUNT>
1

> <PUBCHEM_CACTVS_TAUTO_COUNT>
2

> <PUBCHEM_CONFORMER_ID>
017D9E2A00000001

> <PUBCHEM_MMFF94_ENERGY>
47.6955

> <PUBCHEM_FEATURE_SELFOVERLAP>
61.005

> <PUBCHEM_SHAPE_FINGERPRINT>
11828532 37 17389373029404274059
12202916 173 18122871383271746542
12553582 1 18411709797943488084
12788726 201 18193552260076272658
13122387 1 18051126991080904902
1361 2 16825866873164419819
140371 6 18411127061028800393
14251757 5 17978816531291889918
14363568 33 17833290970339617688
14659021 117 18194389014437537194
14725015 67 18051689941324366131
15322534 239 17185611112915233311
16719943 64 17472426452277921682
17627616 140 16679509157818652727
19930381 70 18122907800652994163
20600515 1 18040703762915702148
20764821 26 18337123318576976602
21987440 362 15514680118192737053
23559900 14 18193542596447602193
445580 102 18121217842294931294
469060 322 17554565777704795244
5265222 85 17401233091938713940
5309563 4 18051133889025138179
57527585 103 18260840301749144659
613672 6 18339060670865220818
7987 15 18190192358668707819
9709674 26 18341609283221337498

> <PUBCHEM_SHAPE_MULTIPOLES>
522.85
8.01
6.68
1.51
3.16
4.61
-0.03
-6.75
-0.35
-1.17
0.36
-0.74
-1.28
2.05

> <PUBCHEM_SHAPE_SELFOVERLAP>
1120.085

> <PUBCHEM_SHAPE_VOLUME>
290.9

> <PUBCHEM_COORDINATE_TYPE>
2
5
10

$$$$
25008847
  -OEChem-05102415113D

 65 68  0     1  0  0  0  0  0999 V2000
   -3.2992   -0.8798   -0.3927 O   0  0  0  0  0  0  0  0  0  0  0  0
   -3.1263   -2.8443   -1.5699 O   0  0  0  0  0  0  0  0  0  0  0  0
    3.9313   -0.2593   -0.5167 N   0  0  2  0  0  0  0  0  0  0  0  0
    1.8386    2.8125   -0.9346 N   0  0  0  0  0  0  0  0  0  0  0  0
   -2.9337    2.7079    1.7541 N   0  0  0  0  0  0  0  0  0  0  0  0
   -1.6677   -2.2966    0.1454 N   0  0  0  0  0  0  0  0  0  0  0  0
   -2.7158    1.8579    2.7714 N   0  0  0  0  0  0  0  0  0  0  0  0
    2.9602    2.0201   -0.4748 C   0  0  2  0  0  0  0  0  0  0  0  0
    4.2608    2.5988   -1.0332 C   0  0  0  0  0  0  0  0  0  0  0  0
    2.7775    0.5611   -0.9135 C   0  0  0  0  0  0  0  0  0  0  0  0
    5.4383    1.6943   -0.6865 C   0  0  0  0  0  0  0  0  0  0  0  0
    5.1742    0.2497   -1.1126 C   0  0  0  0  0  0  0  0  0  0  0  0
    3.7192   -1.6571   -0.8919 C   0  0  0  0  0  0  0  0  0  0  0  0
    2.7664   -2.3509    0.0449 C   0  0  0  0  0  0  0  0  0  0  0  0
    0.6071    2.8323   -0.3049 C   0  0  0  0  0  0  0  0  0  0  0  0
    1.4515   -2.5946   -0.3516 C   0  0  0  0  0  0  0  0  0  0  0  0
    3.1993   -2.7512    1.3091 C   0  0  0  0  0  0  0  0  0  0  0  0
    0.4077    2.0526    0.8414 C   0  0  0  0  0  0  0  0  0  0  0  0
   -0.4178    3.6289   -0.8188 C   0  0  0  0  0  0  0  0  0  0  0  0
    0.5696   -3.2388    0.5160 C   0  0  0  0  0  0  0  0  0  0  0  0
   -0.8499    2.0879    1.4665 C   0  0  0  0  0  0  0  0  0  0  0  0
    2.3172   -3.3953    2.1768 C   0  0  0  0  0  0  0  0  0  0  0  0
   -1.6751    3.6748   -0.2076 C   0  0  0  0  0  0  0  0  0  0  0  0
   -1.8530    2.8899    0.9338 C   0  0  0  0  0  0  0  0  0  0  0  0
    1.0024   -3.6391    1.7801 C   0  0  0  0  0  0  0  0  0  0  0  0
   -0.8362   -3.5002    0.0920 C   0  0  0  0  0  0  0  0  0  0  0  0
   -1.4472    1.4827    2.5931 C   0  0  0  0  0  0  0  0  0  0  0  0
   -4.4332   -0.5112   -1.1856 C   0  0  0  0  0  0  0  0  0  0  0  0
   -2.7308   -2.0864   -0.6902 C   0  0  0  0  0  0  0  0  0  0  0  0
   -4.9166    0.8507   -0.6922 C   0  0  0  0  0  0  0  0  0  0  0  0
   -5.5211   -1.5679   -0.9991 C   0  0  0  0  0  0  0  0  0  0  0  0
   -3.9982   -0.4294   -2.6482 C   0  0  0  0  0  0  0  0  0  0  0  0
    3.0542    2.0768    0.6177 H   0  0  0  0  0  0  0  0  0  0  0  0
    4.1933    2.7009   -2.1245 H   0  0  0  0  0  0  0  0  0  0  0  0
    4.4326    3.6065   -0.6359 H   0  0  0  0  0  0  0  0  0  0  0  0
    1.8622    0.1622   -0.4685 H   0  0  0  0  0  0  0  0  0  0  0  0
    2.6321    0.5184   -2.0027 H   0  0  0  0  0  0  0  0  0  0  0  0
    6.3454    2.0648   -1.1774 H   0  0  0  0  0  0  0  0  0  0  0  0
    5.6225    1.7314    0.3948 H   0  0  0  0  0  0  0  0  0  0  0  0
    5.1355    0.1884   -2.2082 H   0  0  0  0  0  0  0  0  0  0  0  0
    6.0243   -0.3593   -0.7814 H   0  0  0  0  0  0  0  0  0  0  0  0
    4.6657   -2.2139   -0.8411 H   0  0  0  0  0  0  0  0  0  0  0  0
    3.3868   -1.7528   -1.9347 H   0  0  0  0  0  0  0  0  0  0  0  0
    1.9322    3.3246   -1.8052 H   0  0  0  0  0  0  0  0  0  0  0  0
    1.1118   -2.2836   -1.3368 H   0  0  0  0  0  0  0  0  0  0  0  0
    4.2213   -2.5669    1.6297 H   0  0  0  0  0  0  0  0  0  0  0  0
    1.1691    1.4242    1.2861 H   0  0  0  0  0  0  0  0  0  0  0  0
   -0.2510    4.2306   -1.7101 H   0  0  0  0  0  0  0  0  0  0  0  0
    2.6541   -3.7063    3.1613 H   0  0  0  0  0  0  0  0  0  0  0  0
   -2.4727    4.2920   -0.6055 H   0  0  0  0  0  0  0  0  0  0  0  0
    0.3258   -4.1403    2.4673 H   0  0  0  0  0  0  0  0  0  0  0  0
   -0.8577   -3.9130   -0.9237 H   0  0  0  0  0  0  0  0  0  0  0  0
   -1.3163   -4.2426    0.7402 H   0  0  0  0  0  0  0  0  0  0  0  0
   -1.0090    0.7824    3.2901 H   0  0  0  0  0  0  0  0  0  0  0  0
   -3.8491    3.1326    1.6739 H   0  0  0  0  0  0  0  0  0  0  0  0
   -1.4758   -1.6032    0.8626 H   0  0  0  0  0  0  0  0  0  0  0  0
   -5.8073    1.1869   -1.2327 H   0  0  0  0  0  0  0  0  0  0  0  0
   -5.1516    0.8167    0.3777 H   0  0  0  0  0  0  0  0  0  0  0  0
   -4.1348    1.6068   -0.8188 H   0  0  0  0  0  0  0  0  0  0  0  0
   -5.3532   -2.4967   -1.5497 H   0  0  0  0  0  0  0  0  0  0  0  0
   -5.6324   -1.8340    0.0585 H   0  0  0  0  0  0  0  0  0  0  0  0
   -6.4873   -1.1881   -1.3524 H   0  0  0  0  0  0  0  0  0  0  0  0
   -3.0496    0.1117   -2.7445 H   0  0  0  0  0  0  0  0  0  0  0  0
   -3.8673   -1.3969   -3.1391 H   0  0  0  0  0  0  0  0  0  0  0  0
   -4.7505    0.1041   -3.2412 H   0  0  0  0  0  0  0  0  0  0  0  0
  1 28  1  0  0  0  0
  1 29  1  0  0  0  0
  2 29  2  0  0  0  0
  3 10  1  0  0  0  0
  3 12  1  0  0  0  0
  3 13  1  0  0  0  0
  4  8  1  0  0  0  0
  4 15  1  0  0  0  0
  4 44  1  0  0  0  0
  5  7  1  0  0  0  0
  5 24  1  0  0  0  0
  5 55  1  0  0  0  0
  6 26  1  0  0  0  0
  6 29  1  0  0  0  0
  6 56  1  0  0  0  0
  7 27  2  0  0  0  0
  8  9  1  0  0  0  0
  8 10  1  0  0  0  0
  8 33  1  0  0  0  0
  9 11  1  0  0  0  0
  9 34  1  0  0  0  0
  9 35  1  0  0  0  0
 10 36  1  0  0  0  0
 10 37  1  0  0  0  0
 11 12  1  0  0  0  0
 11 38  1  0  0  0  0
 11 39  1  0  0  0  0
 12 40  1  0  0  0  0
 12 41  1  0  0  0  0
 13 14  1  0  0  0  0
 13 42  1  0  0  0  0
 13 43  1  0  0  0  0
 14 16  1  0  0  0  0
 14 17  2  0  0  0  0
 15 18  2  0  0  0  0
 15 19  1  0  0  0  0
 16 20  2  0  0  0  0
 16 45  1  0  0  0  0
 17 22  1  0  0  0  0
 17 46  1  0  0  0  0
 18 21  1  0  0  0  0
 18 47  1  0  0  0  0
 19 23  2  0  0  0  0
 19 48  1  0  0  0  0
 20 25  1  0  0  0  0
 20 26  1  0  0  0  0
 21 24  2  0  0  0  0
 21 27  1  0  0  0  0
 22 25  2  0  0  0  0
 22 49  1  0  0  0  0
 23 24  1  0  0  0  0
 23 50  1  0  0  0  0
 25 51  1  0  0  0  0
 26 52  1  0  0  0  0
 26 53  1  0  0  0  0
 27 54  1  0  0  0  0
 28 30  1  0  0  0  0
 28 31  1  0  0  0  0
 28 32  1  0  0  0  0
 30 57  1  0  0  0  0
 30 58  1  0  0  0  0
 30 59  1  0  0  0  0
 31 60  1  0  0  0  0
 31 61  1  0  0  0  0
 31 62  1  0  0  0  0
 32 63  1  0  0  0  0
 32 64  1  0  0  0  0
 32 65  1  0  0  0  0
M  END
> <PUBCHEM_COMPOUND_CID>
25008847

> <PUBCHEM_CONFORMER_RMSD>
1.6

> <PUBCHEM_CONFORMER_DIVERSEORDER>
1
11
24
58
7
74
2
31
38
41
68
27
17
71
18
75
16
62
34
32
49
26
52
21
50
80
42
29
12
36
77
23
51
22
39
8
69
66
60
43
57
13
76
55
73
5
35
25
9
20
61
40
47
3
63
33
10
53
72
59
56
70
28
44
64
54
30
65
4
46
81
19
45
14
37
67
15
79
6
78
48

> <PUBCHEM_MMFF94_PARTIAL_CHARGES>
37
1 -0.43
10 0.27
12 0.27
13 0.41
14 -0.14
15 0.1
16 -0.15
17 -0.15
18 -0.15
19 -0.15
2 -0.57
20 -0.14
22 -0.15
23 -0.15
24 -0.15
25 -0.15
26 0.44
27 0.14
28 0.28
29 0.78
3 -0.81
4 -0.87
44 0.4
45 0.15
46 0.15
47 0.15
48 0.15
49 0.15
5 0.3
50 0.15
51 0.15
54 0.15
55 0.27
56 0.37
6 -0.73
7 -0.71
8 0.37

> <PUBCHEM_EFFECTIVE_ROTOR_COUNT>
10.2

> <PUBCHEM_PHARMACOPHORE_FEATURES>
12
1 2 acceptor
1 3 cation
1 4 cation
1 4 donor
1 5 donor
1 6 donor
1 7 acceptor
4 28 30 31 32 hydrophobe
5 5 7 21 24 27 rings
6 14 16 17 20 22 25 rings
6 15 18 19 21 23 24 rings
6 3 8 9 10 11 12 rings

> <PUBCHEM_HEAVY_ATOM_COUNT>
32

> <PUBCHEM_ATOM_DEF_STEREO_COUNT>
0

> <PUBCHEM_ATOM_UDEF_STEREO_COUNT>
1

> <PUBCHEM_BOND_DEF_STEREO_COUNT>
0

> <PUBCHEM_BOND_UDEF_STEREO_COUNT>
0

> <PUBCHEM_ISOTOPIC_ATOM_COUNT>
0

> <PUBCHEM_COMPONENT_COUNT>
1

> <PUBCHEM_CACTVS_TAUTO_COUNT>
4

> <PUBCHEM_CONFORMER_ID>
017D9ACF00000001

> <PUBCHEM_MMFF94_ENERGY>
76.9482

> <PUBCHEM_FEATURE_SELFOVERLAP>
60.987

> <PUBCHEM_SHAPE_FINGERPRINT>
10190206 1 18048623666221526452
10675989 125 18266737072629406669
11578080 2 15141255260736235418
12788726 201 18131069316403946755
13642711 20 17385446479801138529
14117953 113 16897641291075105797
14725015 67 16969124424874580218
14840074 17 18197794197907175481
14931854 50 18411698824343992287
14932702 115 18056176000463854417
15001296 14 18337956679829258701
15274700 147 15010672178723540172
15297060 5 17201079176028571347
15351339 4 18337381733905637819
17138139 8 18129655430186579100
20764821 26 17977954814464526215
20775530 9 18200861981377473973
21133410 62 18186811292036899563
21796203 349 17400681154323501314
23536364 44 16751601429834382316
3027735 51 18410854365186340717
437795 70 17983885314519771054
463206 1 18412272722069128905
469060 322 17905318538551492531
46939830 39 12408335319535250845
5047190 2 18341057307262629705
66674814 147 18262796401221794508

> <PUBCHEM_SHAPE_MULTIPOLES>
621.9
9.96
6.24
2.16
0.87
0.87
1.07
0.15
-5.44
-1.13
1.6
1.61
-0.08
-3.87

> <PUBCHEM_SHAPE_SELFOVERLAP>
1327.596

> <PUBCHEM_SHAPE_VOLUME>
346.5

> <PUBCHEM_COORDINATE_TYPE>
2
5
10

$$$$
25009895
  -OEChem-05102415113D

 56 59  0     1  0  0  0  0  0999 V2000
   -2.9785   -1.8523    1.2178 O   0  0  0  0  0  0  0  0  0  0  0  0
   -2.1275   -4.4278    0.5932 O   0  0  0  0  0  0  0  0  0  0  0  0
   -0.6953    3.2045    0.0114 N   0  0  2  0  0  0  0  0  0  0  0  0
    2.7491    1.8603    0.5764 N   0  0  0  0  0  0  0  0  0  0  0  0
    3.3386   -3.4649   -0.5681 N   0  0  0  0  0  0  0  0  0  0  0  0
    2.3767   -3.7120   -1.4728 N   0  0  0  0  0  0  0  0  0  0  0  0
    1.7168    2.6427   -0.0713 C   0  0  1  0  0  0  0  0  0  0  0  0
    0.3652    2.3768    0.6047 C   0  0  0  0  0  0  0  0  0  0  0  0
    2.0784    4.1268   -0.0030 C   0  0  0  0  0  0  0  0  0  0  0  0
    0.9355    4.9789   -0.5438 C   0  0  0  0  0  0  0  0  0  0  0  0
   -0.3873    4.6352    0.1420 C   0  0  0  0  0  0  0  0  0  0  0  0
   -1.9869    2.9010    0.6273 C   0  0  0  0  0  0  0  0  0  0  0  0
   -2.5618    1.6067    0.1161 C   0  0  0  0  0  0  0  0  0  0  0  0
    2.9526    0.5135    0.3350 C   0  0  0  0  0  0  0  0  0  0  0  0
   -2.5077    0.4588    0.9067 C   0  0  0  0  0  0  0  0  0  0  0  0
   -3.1476    1.5555   -1.1486 C   0  0  0  0  0  0  0  0  0  0  0  0
    2.1290   -0.1536   -0.5807 C   0  0  0  0  0  0  0  0  0  0  0  0
    3.9751   -0.1607    1.0051 C   0  0  0  0  0  0  0  0  0  0  0  0
    2.3533   -1.5210   -0.8124 C   0  0  0  0  0  0  0  0  0  0  0  0
   -3.0396   -0.7404    0.4327 C   0  0  0  0  0  0  0  0  0  0  0  0
   -3.6793    0.3562   -1.6228 C   0  0  0  0  0  0  0  0  0  0  0  0
   -3.6254   -0.7917   -0.8322 C   0  0  0  0  0  0  0  0  0  0  0  0
    3.3784   -2.1682   -0.1314 C   0  0  0  0  0  0  0  0  0  0  0  0
    4.2106   -1.5218    0.7851 C   0  0  0  0  0  0  0  0  0  0  0  0
    1.7793   -2.5272   -1.6187 C   0  0  0  0  0  0  0  0  0  0  0  0
   -4.1999   -2.0663   -1.3558 C   0  0  0  0  0  0  0  0  0  0  0  0
   -1.6815   -2.3033    1.6025 C   0  0  0  0  0  0  0  0  0  0  0  0
   -1.7202   -3.8057    1.8058 C   0  0  0  0  0  0  0  0  0  0  0  0
    1.6582    2.3996   -1.1405 H   0  0  0  0  0  0  0  0  0  0  0  0
    0.1143    1.3174    0.5062 H   0  0  0  0  0  0  0  0  0  0  0  0
    0.4472    2.5727    1.6837 H   0  0  0  0  0  0  0  0  0  0  0  0
    2.2870    4.4194    1.0346 H   0  0  0  0  0  0  0  0  0  0  0  0
    2.9947    4.3238   -0.5725 H   0  0  0  0  0  0  0  0  0  0  0  0
    0.8412    4.8209   -1.6257 H   0  0  0  0  0  0  0  0  0  0  0  0
    1.1642    6.0403   -0.3952 H   0  0  0  0  0  0  0  0  0  0  0  0
   -1.1764    5.2321   -0.3312 H   0  0  0  0  0  0  0  0  0  0  0  0
   -0.3437    4.9301    1.1988 H   0  0  0  0  0  0  0  0  0  0  0  0
   -2.7193    3.6838    0.3839 H   0  0  0  0  0  0  0  0  0  0  0  0
   -1.9245    2.8991    1.7241 H   0  0  0  0  0  0  0  0  0  0  0  0
    3.3074    2.3000    1.3000 H   0  0  0  0  0  0  0  0  0  0  0  0
   -2.0583    0.5026    1.8959 H   0  0  0  0  0  0  0  0  0  0  0  0
   -3.1951    2.4429   -1.7744 H   0  0  0  0  0  0  0  0  0  0  0  0
    1.3282    0.3218   -1.1329 H   0  0  0  0  0  0  0  0  0  0  0  0
    4.6088    0.3684    1.7140 H   0  0  0  0  0  0  0  0  0  0  0  0
   -4.1310    0.3326   -2.6110 H   0  0  0  0  0  0  0  0  0  0  0  0
    5.0042   -2.0472    1.3046 H   0  0  0  0  0  0  0  0  0  0  0  0
    0.9489   -2.4446   -2.3057 H   0  0  0  0  0  0  0  0  0  0  0  0
    3.9397   -4.2301   -0.2885 H   0  0  0  0  0  0  0  0  0  0  0  0
   -4.7539   -1.9113   -2.2879 H   0  0  0  0  0  0  0  0  0  0  0  0
   -4.8991   -2.4997   -0.6328 H   0  0  0  0  0  0  0  0  0  0  0  0
   -3.3998   -2.7858   -1.5572 H   0  0  0  0  0  0  0  0  0  0  0  0
   -1.3856   -1.8053    2.5319 H   0  0  0  0  0  0  0  0  0  0  0  0
   -0.9515   -2.0656    0.8179 H   0  0  0  0  0  0  0  0  0  0  0  0
   -0.7344   -4.1862    2.0886 H   0  0  0  0  0  0  0  0  0  0  0  0
   -2.4499   -4.0702    2.5774 H   0  0  0  0  0  0  0  0  0  0  0  0
   -2.1438   -5.3863    0.7563 H   0  0  0  0  0  0  0  0  0  0  0  0
  1 20  1  0  0  0  0
  1 27  1  0  0  0  0
  2 28  1  0  0  0  0
  2 56  1  0  0  0  0
  3  8  1  0  0  0  0
  3 11  1  0  0  0  0
  3 12  1  0  0  0  0
  4  7  1  0  0  0  0
  4 14  1  0  0  0  0
  4 40  1  0  0  0  0
  5  6  1  0  0  0  0
  5 23  1  0  0  0  0
  5 48  1  0  0  0  0
  6 25  2  0  0  0  0
  7  8  1  0  0  0  0
  7  9  1  0  0  0  0
  7 29  1  0  0  0  0
  8 30  1  0  0  0  0
  8 31  1  0  0  0  0
  9 10  1  0  0  0  0
  9 32  1  0  0  0  0
  9 33  1  0  0  0  0
 10 11  1  0  0  0  0
 10 34  1  0  0  0  0
 10 35  1  0  0  0  0
 11 36  1  0  0  0  0
 11 37  1  0  0  0  0
 12 13  1  0  0  0  0
 12 38  1  0  0  0  0
 12 39  1  0  0  0  0
 13 15  2  0  0  0  0
 13 16  1  0  0  0  0
 14 17  2  0  0  0  0
 14 18  1  0  0  0  0
 15 20  1  0  0  0  0
 15 41  1  0  0  0  0
 16 21  2  0  0  0  0
 16 42  1  0  0  0  0
 17 19  1  0  0  0  0
 17 43  1  0  0  0  0
 18 24  2  0  0  0  0
 18 44  1  0  0  0  0
 19 23  2  0  0  0  0
 19 25  1  0  0  0  0
 20 22  2  0  0  0  0
 21 22  1  0  0  0  0
 21 45  1  0  0  0  0
 22 26  1  0  0  0  0
 23 24  1  0  0  0  0
 24 46  1  0  0  0  0
 25 47  1  0  0  0  0
 26 49  1  0  0  0  0
 26 50  1  0  0  0  0
 26 51  1  0  0  0  0
 27 28  1  0  0  0  0
 27 52  1  0  0  0  0
 27 53  1  0  0  0  0
 28 54  1  0  0  0  0
 28 55  1  0  0  0  0
M  END
> <PUBCHEM_COMPOUND_CID>
25009895

> <PUBCHEM_CONFORMER_RMSD>
1

> <PUBCHEM_CONFORMER_DIVERSEORDER>
1
141
23
189
196
226
12
262
245
72
191
53
124
123
214
88
222
223
254
266
246
182
70
272
213
243
204
48
63
212
236
57
270
59
21
152
133
240
229
179
220
201
261
164
135
120
16
26
231
113
4
258
101
168
125
89
218
188
228
3
147
194
156
75
139
175
100
28
134
186
105
219
253
93
117
142
192
87
227
40
203
67
233
83
162
61
104
251
198
121
202
74
32
79
84
260
195
111
51
10
255
169
140
137
128
132
19
174
54
171
256
210
197
66
15
211
25
127
155
237
154
96
44
271
36
199
50
30
185
5
145
166
65
55
82
183
148
2
138
73
58
71
234
217
144
103
249
122
181
273
215
177
41
259
165
37
118
34
8
130
38
200
129
193
102
250
209
22
49
178
42
263
76
91
18
180
160
167
163
99
7
95
216
60
176
146
235
86
172
27
35
52
39
257
6
267
106
90
92
56
68
131
224
98
264
206
77
9
45
248
239
268
109
69
80
64
97
190
238
151
62
17
208
14
221
94
232
116
143
158
170
230
244
126
161
85
20
46
24
150
242
119
31
252
205
247
110
78
33
157
136
47
149
241
107
187
112
159
11
225
269
43
81
274
173
184
115
13
108
207
29
114
153
265

> <PUBCHEM_MMFF94_PARTIAL_CHARGES>
35
1 -0.36
11 0.27
12 0.41
13 -0.14
14 0.1
15 -0.15
16 -0.15
17 -0.15
18 -0.15
2 -0.68
20 0.08
21 -0.15
22 -0.14
23 -0.15
24 -0.15
25 0.14
26 0.14
27 0.28
28 0.28
3 -0.81
4 -0.87
40 0.4
41 0.15
42 0.15
43 0.15
44 0.15
45 0.15
46 0.15
47 0.15
48 0.27
5 0.3
56 0.4
6 -0.71
7 0.37
8 0.27

> <PUBCHEM_EFFECTIVE_ROTOR_COUNT>
8.2

> <PUBCHEM_PHARMACOPHORE_FEATURES>
12
1 1 acceptor
1 2 acceptor
1 2 donor
1 3 cation
1 4 cation
1 4 donor
1 5 donor
1 6 acceptor
5 5 6 19 23 25 rings
6 13 15 16 20 21 22 rings
6 14 17 18 19 23 24 rings
6 3 7 8 9 10 11 rings

> <PUBCHEM_HEAVY_ATOM_COUNT>
28

> <PUBCHEM_ATOM_DEF_STEREO_COUNT>
0

> <PUBCHEM_ATOM_UDEF_STEREO_COUNT>
1

> <PUBCHEM_BOND_DEF_STEREO_COUNT>
0

> <PUBCHEM_BOND_UDEF_STEREO_COUNT>
0

> <PUBCHEM_ISOTOPIC_ATOM_COUNT>
0

> <PUBCHEM_COMPONENT_COUNT>
1

> <PUBCHEM_CACTVS_TAUTO_COUNT>
2

> <PUBCHEM_CONFORMER_ID>
017D9EE700000001

> <PUBCHEM_MMFF94_ENERGY>
74.4616

> <PUBCHEM_FEATURE_SELFOVERLAP>
60.992

> <PUBCHEM_SHAPE_FINGERPRINT>
12156800 1 14586276663188879355
12202916 173 18194091123658425834
12553582 1 18339376179342633216
12788726 201 17976260136581522554
13122387 1 17906171746040839418
1361 2 17476343376921527031
140371 6 18410853274101351176
14251757 5 17549567114488068454
14659021 117 18122615055729220826
14725015 67 18122618353915983747
19591789 44 17473551729319547848
19930381 70 18341323509246341887
20764821 26 18264780873749685426
23559900 14 18192982932065216585
338550 245 16460530417941870298
3493558 16 16449290626394051422
4403749 210 17400899286432726129
445580 102 18120940761032873680
469060 322 17482218926368068028
5265222 85 16898802401714717556
5309563 4 18196094558661542131
57527585 103 18188790391349706635
9709674 26 18263636441317319265

> <PUBCHEM_SHAPE_MULTIPOLES>
544.56
7.77
7.29
1.47
0.02
3.63
0.05
-5.15
0.95
-1.61
-0.25
0.76
-1.38
1.45

> <PUBCHEM_SHAPE_SELFOVERLAP>
1168.907

> <PUBCHEM_SHAPE_VOLUME>
302.5

> <PUBCHEM_COORDINATE_TYPE>
2
5
10

$$$$
57446053
  -OEChem-05102415113D

 49 52  0     1  0  0  0  0  0999 V2000
   -1.9692   -3.1764    1.8341 O   0  0  0  0  0  0  0  0  0  0  0  0
   -1.9826    2.1608   -0.1076 N   0  0  2  0  0  0  0  0  0  0  0  0
    1.7128    2.4317    0.4031 N   0  0  0  0  0  0  0  0  0  0  0  0
    4.4402   -2.2898   -0.1283 N   0  0  0  0  0  0  0  0  0  0  0  0
    3.6609   -3.0267   -0.9373 N   0  0  0  0  0  0  0  0  0  0  0  0
    0.4453    2.6290   -0.2693 C   0  0  2  0  0  0  0  0  0  0  0  0
    0.1614    4.1258   -0.4010 C   0  0  0  0  0  0  0  0  0  0  0  0
   -0.6713    1.9268    0.5147 C   0  0  0  0  0  0  0  0  0  0  0  0
   -1.2348    4.3551   -0.9691 C   0  0  0  0  0  0  0  0  0  0  0  0
   -2.2929    3.5957   -0.1678 C   0  0  0  0  0  0  0  0  0  0  0  0
   -3.0294    1.4412    0.6178 C   0  0  0  0  0  0  0  0  0  0  0  0
   -3.0207   -0.0307    0.3008 C   0  0  0  0  0  0  0  0  0  0  0  0
    2.4531    1.2668    0.3126 C   0  0  0  0  0  0  0  0  0  0  0  0
    1.9731    0.2055   -0.4652 C   0  0  0  0  0  0  0  0  0  0  0  0
   -2.4936   -0.9388    1.2189 C   0  0  0  0  0  0  0  0  0  0  0  0
   -3.5401   -0.4861   -0.9110 C   0  0  0  0  0  0  0  0  0  0  0  0
    3.6662    1.1647    0.9962 C   0  0  0  0  0  0  0  0  0  0  0  0
    2.7398   -0.9690   -0.5443 C   0  0  0  0  0  0  0  0  0  0  0  0
    3.9441   -1.0440    0.1464 C   0  0  0  0  0  0  0  0  0  0  0  0
    4.4407    0.0021    0.9272 C   0  0  0  0  0  0  0  0  0  0  0  0
   -2.4861   -2.3025    0.9255 C   0  0  0  0  0  0  0  0  0  0  0  0
   -3.5324   -1.8498   -1.2046 C   0  0  0  0  0  0  0  0  0  0  0  0
   -3.0054   -2.7580   -0.2863 C   0  0  0  0  0  0  0  0  0  0  0  0
    2.6274   -2.2199   -1.1882 C   0  0  0  0  0  0  0  0  0  0  0  0
   -3.0063   -4.2137   -0.6172 C   0  0  0  0  0  0  0  0  0  0  0  0
    0.4858    2.2426   -1.2963 H   0  0  0  0  0  0  0  0  0  0  0  0
    0.9108    4.6020   -1.0447 H   0  0  0  0  0  0  0  0  0  0  0  0
    0.2368    4.6141    0.5796 H   0  0  0  0  0  0  0  0  0  0  0  0
   -0.4624    0.8548    0.5587 H   0  0  0  0  0  0  0  0  0  0  0  0
   -0.6711    2.2818    1.5556 H   0  0  0  0  0  0  0  0  0  0  0  0
   -1.4645    5.4266   -0.9626 H   0  0  0  0  0  0  0  0  0  0  0  0
   -1.2619    4.0289   -2.0166 H   0  0  0  0  0  0  0  0  0  0  0  0
   -3.2612    3.7484   -0.6601 H   0  0  0  0  0  0  0  0  0  0  0  0
   -2.3687    4.0213    0.8415 H   0  0  0  0  0  0  0  0  0  0  0  0
   -4.0214    1.8156    0.3275 H   0  0  0  0  0  0  0  0  0  0  0  0
   -2.9650    1.6120    1.7011 H   0  0  0  0  0  0  0  0  0  0  0  0
    2.0442    3.1544    1.0328 H   0  0  0  0  0  0  0  0  0  0  0  0
    1.0446    0.2341   -1.0215 H   0  0  0  0  0  0  0  0  0  0  0  0
   -2.0890   -0.5834    2.1637 H   0  0  0  0  0  0  0  0  0  0  0  0
   -3.9534    0.2117   -1.6346 H   0  0  0  0  0  0  0  0  0  0  0  0
    4.0291    1.9961    1.5974 H   0  0  0  0  0  0  0  0  0  0  0  0
    5.3831   -0.0791    1.4573 H   0  0  0  0  0  0  0  0  0  0  0  0
   -3.9408   -2.1881   -2.1532 H   0  0  0  0  0  0  0  0  0  0  0  0
    1.8336   -2.5758   -1.8298 H   0  0  0  0  0  0  0  0  0  0  0  0
    5.3047   -2.6982    0.2044 H   0  0  0  0  0  0  0  0  0  0  0  0
   -1.9821   -4.6011   -0.6309 H   0  0  0  0  0  0  0  0  0  0  0  0
   -3.5915   -4.7713    0.1216 H   0  0  0  0  0  0  0  0  0  0  0  0
   -3.4455   -4.4097   -1.6012 H   0  0  0  0  0  0  0  0  0  0  0  0
   -1.6565   -2.6803    2.6100 H   0  0  0  0  0  0  0  0  0  0  0  0
  1 21  1  0  0  0  0
  1 49  1  0  0  0  0
  2  8  1  0  0  0  0
  2 10  1  0  0  0  0
  2 11  1  0  0  0  0
  3  6  1  0  0  0  0
  3 13  1  0  0  0  0
  3 37  1  0  0  0  0
  4  5  1  0  0  0  0
  4 19  1  0  0  0  0
  4 45  1  0  0  0  0
  5 24  2  0  0  0  0
  6  7  1  0  0  0  0
  6  8  1  0  0  0  0
  6 26  1  0  0  0  0
  7  9  1  0  0  0  0
  7 27  1  0  0  0  0
  7 28  1  0  0  0  0
  8 29  1  0  0  0  0
  8 30  1  0  0  0  0
  9 10  1  0  0  0  0
  9 31  1  0  0  0  0
  9 32  1  0  0  0  0
 10 33  1  0  0  0  0
 10 34  1  0  0  0  0
 11 12  1  0  0  0  0
 11 35  1  0  0  0  0
 11 36  1  0  0  0  0
 12 15  2  0  0  0  0
 12 16  1  0  0  0  0
 13 14  2  0  0  0  0
 13 17  1  0  0  0  0
 14 18  1  0  0  0  0
 14 38  1  0  0  0  0
 15 21  1  0  0  0  0
 15 39  1  0  0  0  0
 16 22  2  0  0  0  0
 16 40  1  0  0  0  0
 17 20  2  0  0  0  0
 17 41  1  0  0  0  0
 18 19  2  0  0  0  0
 18 24  1  0  0  0  0
 19 20  1  0  0  0  0
 20 42  1  0  0  0  0
 21 23  2  0  0  0  0
 22 23  1  0  0  0  0
 22 43  1  0  0  0  0
 23 25  1  0  0  0  0
 24 44  1  0  0  0  0
 25 46  1  0  0  0  0
 25 47  1  0  0  0  0
 25 48  1  0  0  0  0
M  END
> <PUBCHEM_COMPOUND_CID>
57446053

> <PUBCHEM_CONFORMER_RMSD>
0.8

> <PUBCHEM_CONFORMER_DIVERSEORDER>
1
267
120
275
356
29
220
285
248
357
140
185
314
128
221
186
259
108
71
77
243
362
84
38
217
152
121
165
284
234
142
193
250
78
242
245
312
203
330
59
12
85
182
36
137
297
340
224
37
126
127
257
302
230
107
254
337
249
173
209
282
198
175
79
228
64
218
46
156
251
151
195
322
92
204
172
183
163
112
177
232
63
323
238
33
166
8
258
160
75
114
293
264
350
103
351
21
130
68
216
52
98
129
344
104
58
53
306
339
318
253
194
207
11
289
262
328
333
324
56
86
187
167
139
225
5
247
159
54
237
157
353
233
155
298
133
219
288
90
342
131
105
308
236
294
211
31
82
25
304
141
197
147
202
343
325
246
279
244
354
265
269
214
69
200
162
268
66
327
278
358
70
270
132
291
116
51
15
355
272
55
74
119
60
277
360
320
22
83
149
296
40
338
81
252
241
332
136
19
345
4
223
229
292
42
287
235
117
222
199
201
321
144
286
352
326
192
111
35
190
295
208
124
47
205
91
301
348
178
135
299
9
303
45
263
174
305
349
329
143
169
94
95
41
341
67
161
14
13
212
313
310
87
134
335
109
89
171
26
61
196
283
148
281
189
50
311
347
34
240
336
28
23
319
361
72
255
170
213
97
2
27
300
24
280
65
359
206
363
3
93
48
180
118
260
73
125
39
146
164
331
49
274
100
334
101
17
80
106
364
184
158
113
76
176
7
179
102
115
346
276
309
290
154
271
215
181
32
6
145
317
316
122
227
231
307
62
168
191
226
239
261
18
188
210
273
96
266
16
99
10
153
43
20
150
30
123
315
88
256
44
110
57
138

> <PUBCHEM_MMFF94_PARTIAL_CHARGES>
32
1 -0.53
10 0.27
11 0.41
12 -0.14
13 0.1
14 -0.15
15 -0.15
16 -0.15
17 -0.15
19 -0.15
2 -0.81
20 -0.15
21 0.08
22 -0.15
23 -0.14
24 0.14
25 0.14
3 -0.87
37 0.4
38 0.15
39 0.15
4 0.3
40 0.15
41 0.15
42 0.15
43 0.15
44 0.15
45 0.27
49 0.45
5 -0.71
6 0.37
8 0.27

> <PUBCHEM_EFFECTIVE_ROTOR_COUNT>
5.2

> <PUBCHEM_PHARMACOPHORE_FEATURES>
10
1 1 donor
1 2 cation
1 3 cation
1 3 donor
1 4 donor
1 5 acceptor
5 4 5 18 19 24 rings
6 12 15 16 21 22 23 rings
6 13 14 17 18 19 20 rings
6 2 6 7 8 9 10 rings

> <PUBCHEM_HEAVY_ATOM_COUNT>
25

> <PUBCHEM_ATOM_DEF_STEREO_COUNT>
0

> <PUBCHEM_ATOM_UDEF_STEREO_COUNT>
1

> <PUBCHEM_BOND_DEF_STEREO_COUNT>
0

> <PUBCHEM_BOND_UDEF_STEREO_COUNT>
0

> <PUBCHEM_ISOTOPIC_ATOM_COUNT>
0

> <PUBCHEM_COMPONENT_COUNT>
1

> <PUBCHEM_CACTVS_TAUTO_COUNT>
6

> <PUBCHEM_CONFORMER_ID>
036C8EA500000001

> <PUBCHEM_MMFF94_ENERGY>
61.2701

> <PUBCHEM_FEATURE_SELFOVERLAP>
50.838

> <PUBCHEM_SHAPE_FINGERPRINT>
10764073 3 17970943049464822771
107951 10 16955935310452894177
10940486 97 18046076969341546380
1100329 8 14521157812504883860
11014199 57 18339365282936646415
11552529 35 17917709102013540088
12156800 1 16116762798958543999
12422481 6 18126033523727644609
12553582 1 18265066879906187701
13122387 1 16898500009561693230
13402501 40 18053950549878527380
1361 2 16537914699366744511
138480 1 15600607802506577133
14251757 5 18050593771313308166
14659021 117 18337657629957233754
14725015 67 18123469384790848207
15927050 60 17331677952048803869
16719943 64 17616538354645851790
19141452 34 18342177730991938985
19315092 285 16555917930902688879
19930381 70 17907013229325016687
20775530 9 18341334482375872227
21133410 52 17405972438326609454
23559900 14 18050837008196130049
3298306 158 17183061341313169765
4280585 95 18190443021650581888
445580 102 17686907528135336955
469060 322 17554566902970616812
5265222 85 17688336498589137316
5309563 4 17906738351285996035
550186 72 18336263544183698596
56633871 153 18341059592306959867
57527585 103 17823995613118494523
613672 6 18266160902576399851
9709674 26 18340765957871444104

> <PUBCHEM_SHAPE_MULTIPOLES>
488.69
8.5
6.19
1.19
4.67
2.81
0.16
-7.36
0.25
-2.98
-1.48
-0.34
-0.57
0.94

> <PUBCHEM_SHAPE_SELFOVERLAP>
1062.323

> <PUBCHEM_SHAPE_VOLUME>
268.4

> <PUBCHEM_COORDINATE_TYPE>
2
5
10

$$$$
56641701
  -OEChem-05102415113D

 58 61  0     1  0  0  0  0  0999 V2000
    1.2900   -3.1145    0.2494 O   0  0  0  0  0  0  0  0  0  0  0  0
    3.6802   -0.7335    1.4357 O   0  0  0  0  0  0  0  0  0  0  0  0
    3.9012   -2.5196   -0.0095 O   0  0  0  0  0  0  0  0  0  0  0  0
   -3.6764   -0.3534    0.4276 N   0  0  2  0  0  0  0  0  0  0  0  0
   -1.9247    2.9503    0.3413 N   0  0  0  0  0  0  0  0  0  0  0  0
    3.2821    2.1300   -1.1519 N   0  0  0  0  0  0  0  0  0  0  0  0
    3.1878    1.3884   -2.2682 N   0  0  0  0  0  0  0  0  0  0  0  0
   -2.9524    1.9813    0.0211 C   0  0  2  0  0  0  0  0  0  0  0  0
   -4.3114    2.4990    0.4936 C   0  0  0  0  0  0  0  0  0  0  0  0
   -2.6193    0.6365    0.6808 C   0  0  0  0  0  0  0  0  0  0  0  0
   -5.3835    1.4317    0.3032 C   0  0  0  0  0  0  0  0  0  0  0  0
   -4.9709    0.1078    0.9476 C   0  0  0  0  0  0  0  0  0  0  0  0
   -3.3200   -1.6448    1.0149 C   0  0  0  0  0  0  0  0  0  0  0  0
   -2.2917   -2.3715    0.1895 C   0  0  0  0  0  0  0  0  0  0  0  0
   -0.5892    2.7821    0.0223 C   0  0  0  0  0  0  0  0  0  0  0  0
   -0.2417    2.0412   -1.1142 C   0  0  0  0  0  0  0  0  0  0  0  0
    0.3919    3.3522    0.8356 C   0  0  0  0  0  0  0  0  0  0  0  0
   -0.9613   -2.4077    0.6069 C   0  0  0  0  0  0  0  0  0  0  0  0
   -2.6693   -3.0079   -0.9931 C   0  0  0  0  0  0  0  0  0  0  0  0
    1.1200    1.8822   -1.4210 C   0  0  0  0  0  0  0  0  0  0  0  0
    2.0766    2.4604   -0.5941 C   0  0  0  0  0  0  0  0  0  0  0  0
    1.7516    3.2026    0.5433 C   0  0  0  0  0  0  0  0  0  0  0  0
   -0.0083   -3.0804   -0.1580 C   0  0  0  0  0  0  0  0  0  0  0  0
   -1.7162   -3.6804   -1.7581 C   0  0  0  0  0  0  0  0  0  0  0  0
   -0.3858   -3.7169   -1.3405 C   0  0  0  0  0  0  0  0  0  0  0  0
    1.8709    1.2397   -2.4288 C   0  0  0  0  0  0  0  0  0  0  0  0
    1.7622   -2.0009    1.0064 C   0  0  0  0  0  0  0  0  0  0  0  0
    3.2306   -1.8125    0.7302 C   0  0  0  0  0  0  0  0  0  0  0  0
    5.0690   -0.4270    1.2737 C   0  0  0  0  0  0  0  0  0  0  0  0
    5.4077    0.7855    2.1143 C   0  0  0  0  0  0  0  0  0  0  0  0
   -3.0196    1.8524   -1.0670 H   0  0  0  0  0  0  0  0  0  0  0  0
   -4.5858    3.4079   -0.0553 H   0  0  0  0  0  0  0  0  0  0  0  0
   -4.2642    2.7772    1.5548 H   0  0  0  0  0  0  0  0  0  0  0  0
   -2.4712    0.7768    1.7613 H   0  0  0  0  0  0  0  0  0  0  0  0
   -1.6716    0.2654    0.2821 H   0  0  0  0  0  0  0  0  0  0  0  0
   -6.3286    1.7761    0.7381 H   0  0  0  0  0  0  0  0  0  0  0  0
   -5.5617    1.2794   -0.7689 H   0  0  0  0  0  0  0  0  0  0  0  0
   -4.9342    0.2232    2.0389 H   0  0  0  0  0  0  0  0  0  0  0  0
   -5.7489   -0.6322    0.7235 H   0  0  0  0  0  0  0  0  0  0  0  0
   -4.2016   -2.2999    1.0594 H   0  0  0  0  0  0  0  0  0  0  0  0
   -2.9890   -1.5405    2.0573 H   0  0  0  0  0  0  0  0  0  0  0  0
   -2.1213    3.5896    1.1056 H   0  0  0  0  0  0  0  0  0  0  0  0
   -0.9800    1.5996   -1.7745 H   0  0  0  0  0  0  0  0  0  0  0  0
    0.1102    3.9250    1.7169 H   0  0  0  0  0  0  0  0  0  0  0  0
   -0.6995   -1.9273    1.5457 H   0  0  0  0  0  0  0  0  0  0  0  0
   -3.7026   -2.9864   -1.3292 H   0  0  0  0  0  0  0  0  0  0  0  0
    2.5153    3.6435    1.1742 H   0  0  0  0  0  0  0  0  0  0  0  0
   -2.0100   -4.1754   -2.6791 H   0  0  0  0  0  0  0  0  0  0  0  0
    0.3523   -4.2418   -1.9408 H   0  0  0  0  0  0  0  0  0  0  0  0
    1.5112    0.6686   -3.2730 H   0  0  0  0  0  0  0  0  0  0  0  0
    4.2058    2.3771   -0.8191 H   0  0  0  0  0  0  0  0  0  0  0  0
    1.2681   -1.0679    0.7075 H   0  0  0  0  0  0  0  0  0  0  0  0
    1.6251   -2.2062    2.0729 H   0  0  0  0  0  0  0  0  0  0  0  0
    5.6720   -1.2826    1.5977 H   0  0  0  0  0  0  0  0  0  0  0  0
    5.2752   -0.2153    0.2186 H   0  0  0  0  0  0  0  0  0  0  0  0
    4.7980    1.6445    1.8155 H   0  0  0  0  0  0  0  0  0  0  0  0
    5.1912    0.5947    3.1706 H   0  0  0  0  0  0  0  0  0  0  0  0
    6.4640    1.0495    2.0122 H   0  0  0  0  0  0  0  0  0  0  0  0
  1 23  1  0  0  0  0
  1 27  1  0  0  0  0
  2 28  1  0  0  0  0
  2 29  1  0  0  0  0
  3 28  2  0  0  0  0
  4 10  1  0  0  0  0
  4 12  1  0  0  0  0
  4 13  1  0  0  0  0
  5  8  1  0  0  0  0
  5 15  1  0  0  0  0
  5 42  1  0  0  0  0
  6  7  1  0  0  0  0
  6 21  1  0  0  0  0
  6 51  1  0  0  0  0
  7 26  2  0  0  0  0
  8  9  1  0  0  0  0
  8 10  1  0  0  0  0
  8 31  1  0  0  0  0
  9 11  1  0  0  0  0
  9 32  1  0  0  0  0
  9 33  1  0  0  0  0
 10 34  1  0  0  0  0
 10 35  1  0  0  0  0
 11 12  1  0  0  0  0
 11 36  1  0  0  0  0
 11 37  1  0  0  0  0
 12 38  1  0  0  0  0
 12 39  1  0  0  0  0
 13 14  1  0  0  0  0
 13 40  1  0  0  0  0
 13 41  1  0  0  0  0
 14 18  2  0  0  0  0
 14 19  1  0  0  0  0
 15 16  2  0  0  0  0
 15 17  1  0  0  0  0
 16 20  1  0  0  0  0
 16 43  1  0  0  0  0
 17 22  2  0  0  0  0
 17 44  1  0  0  0  0
 18 23  1  0  0  0  0
 18 45  1  0  0  0  0
 19 24  2  0  0  0  0
 19 46  1  0  0  0  0
 20 21  2  0  0  0  0
 20 26  1  0  0  0  0
 21 22  1  0  0  0  0
 22 47  1  0  0  0  0
 23 25  2  0  0  0  0
 24 25  1  0  0  0  0
 24 48  1  0  0  0  0
 25 49  1  0  0  0  0
 26 50  1  0  0  0  0
 27 28  1  0  0  0  0
 27 52  1  0  0  0  0
 27 53  1  0  0  0  0
 29 30  1  0  0  0  0
 29 54  1  0  0  0  0
 29 55  1  0  0  0  0
 30 56  1  0  0  0  0
 30 57  1  0  0  0  0
 30 58  1  0  0  0  0
M  END
> <PUBCHEM_COMPOUND_CID>
56641701

> <PUBCHEM_CONFORMER_RMSD>
1.2

> <PUBCHEM_CONFORMER_DIVERSEORDER>
1
41
79
115
215
225
37
180
4
232
82
49
178
243
86
78
103
247
106
228
216
233
77
80
94
105
29
199
168
195
169
150
92
61
147
235
256
3
242
97
98
221
104
91
19
10
202
35
200
222
251
206
184
7
118
36
194
164
160
208
154
257
57
93
65
59
135
241
89
128
124
182
25
66
157
53
190
120
159
132
110
143
185
136
40
101
254
38
212
230
58
114
27
207
148
108
75
152
11
85
229
211
68
113
9
175
226
81
28
46
90
141
170
87
137
33
134
8
209
14
201
237
100
176
125
39
146
249
26
34
123
192
20
236
107
156
45
155
253
23
12
74
217
186
234
76
31
73
64
133
144
250
22
84
96
205
171
6
70
172
18
83
69
255
140
2
240
139
210
231
117
95
213
63
204
174
62
196
130
145
173
15
188
127
99
158
48
189
153
227
52
252
138
42
111
218
166
116
119
44
16
32
102
60
223
88
142
187
126
238
56
50
5
54
121
162
193
131
179
181
214
239
191
71
197
163
161
21
51
167
43
151
220
198
24
183
129
246
47
244
203
149
13
109
67
224
112
177
219
30
17
245
122
55
72
165
248

> <PUBCHEM_MMFF94_PARTIAL_CHARGES>
36
1 -0.36
10 0.27
12 0.27
13 0.41
14 -0.14
15 0.1
16 -0.15
17 -0.15
18 -0.15
19 -0.15
2 -0.43
21 -0.15
22 -0.15
23 0.08
24 -0.15
25 -0.15
26 0.14
27 0.34
28 0.66
29 0.28
3 -0.57
4 -0.81
42 0.4
43 0.15
44 0.15
45 0.15
46 0.15
47 0.15
48 0.15
49 0.15
5 -0.87
50 0.15
51 0.27
6 0.3
7 -0.71
8 0.37

> <PUBCHEM_EFFECTIVE_ROTOR_COUNT>
10.2

> <PUBCHEM_PHARMACOPHORE_FEATURES>
11
1 1 acceptor
1 3 acceptor
1 4 cation
1 5 cation
1 5 donor
1 6 donor
1 7 acceptor
5 6 7 20 21 26 rings
6 14 18 19 23 24 25 rings
6 15 16 17 20 21 22 rings
6 4 8 9 10 11 12 rings

> <PUBCHEM_HEAVY_ATOM_COUNT>
30

> <PUBCHEM_ATOM_DEF_STEREO_COUNT>
0

> <PUBCHEM_ATOM_UDEF_STEREO_COUNT>
1

> <PUBCHEM_BOND_DEF_STEREO_COUNT>
0

> <PUBCHEM_BOND_UDEF_STEREO_COUNT>
0

> <PUBCHEM_ISOTOPIC_ATOM_COUNT>
0

> <PUBCHEM_COMPONENT_COUNT>
1

> <PUBCHEM_CACTVS_TAUTO_COUNT>
2

> <PUBCHEM_CONFORMER_ID>
036048A500000001

> <PUBCHEM_MMFF94_ENERGY>
70.4101

> <PUBCHEM_FEATURE_SELFOVERLAP>
55.919

> <PUBCHEM_SHAPE_FINGERPRINT>
10675989 125 17330823038881485167
1100329 8 18408888412409503175
11513181 2 18130221558569235422
12422481 6 18186794756064598232
12553582 1 16681217322600449797
13122387 1 18337399235897362343
14114206 34 17326914261684943805
15297060 5 18130231441399389418
15403338 16 17169541901294352507
15840311 113 16693021112991863153
18336668 15 18114451358092014800
19930381 70 13652518303133915008
20764821 26 18267293416627285897
22113638 7 18410571760606402669
25019877 29 17487596555977432439
3298306 158 18337966631859535317
338550 245 18261114101318532176
3388396 114 17261580193877505964
463206 1 18335422421227874704
469060 322 17022897892530608442
474144 1 18041293109669448780
57091435 65 18263655111191963098
6287921 2 17621613708951077387
9543594 6 18339080389630035882
9982175 49 17679301021591888316

> <PUBCHEM_SHAPE_MULTIPOLES>
579.85
9.36
5.87
1.8
1.37
2.15
0.74
-1.86
-4.57
-1.25
1.23
1.88
-0.04
-1.9

> <PUBCHEM_SHAPE_SELFOVERLAP>
1239.327

> <PUBCHEM_SHAPE_VOLUME>
322.4

> <PUBCHEM_COORDINATE_TYPE>
2
5
10

$$$$
25008846
  -OEChem-05102415113D

 50 53  0     1  0  0  0  0  0999 V2000
   -2.4591    1.6931   -0.0861 N   0  0  2  0  0  0  0  0  0  0  0  0
    1.1091    2.6293    0.5318 N   0  0  0  0  0  0  0  0  0  0  0  0
    4.7105   -1.4100   -0.3215 N   0  0  0  0  0  0  0  0  0  0  0  0
    4.0957   -2.2132   -1.2056 N   0  0  0  0  0  0  0  0  0  0  0  0
    0.0758   -3.4953    1.5241 N   0  0  0  0  0  0  0  0  0  0  0  0
   -0.1676    2.6340   -0.1520 C   0  0  1  0  0  0  0  0  0  0  0  0
   -1.1318    1.6653    0.5456 C   0  0  0  0  0  0  0  0  0  0  0  0
   -0.7365    4.0533   -0.1675 C   0  0  0  0  0  0  0  0  0  0  0  0
   -2.1465    4.0556   -0.7477 C   0  0  0  0  0  0  0  0  0  0  0  0
   -3.0423    3.0408   -0.0363 C   0  0  0  0  0  0  0  0  0  0  0  0
   -3.3510    0.7258    0.5530 C   0  0  0  0  0  0  0  0  0  0  0  0
   -3.0538   -0.6844    0.1172 C   0  0  0  0  0  0  0  0  0  0  0  0
    2.0629    1.6416    0.3636 C   0  0  0  0  0  0  0  0  0  0  0  0
   -2.3671   -1.5481    0.9705 C   0  0  0  0  0  0  0  0  0  0  0  0
    1.8047    0.5770   -0.5091 C   0  0  0  0  0  0  0  0  0  0  0  0
   -3.4665   -1.1274   -1.1393 C   0  0  0  0  0  0  0  0  0  0  0  0
    3.2681    1.7201    1.0638 C   0  0  0  0  0  0  0  0  0  0  0  0
    2.7870   -0.4149   -0.6666 C   0  0  0  0  0  0  0  0  0  0  0  0
   -2.0932   -2.8550    0.5671 C   0  0  0  0  0  0  0  0  0  0  0  0
    3.9784   -0.3123    0.0430 C   0  0  0  0  0  0  0  0  0  0  0  0
    4.2557    0.7405    0.9177 C   0  0  0  0  0  0  0  0  0  0  0  0
   -3.1925   -2.4342   -1.5428 C   0  0  0  0  0  0  0  0  0  0  0  0
   -2.5059   -3.2980   -0.6895 C   0  0  0  0  0  0  0  0  0  0  0  0
   -1.3597   -3.7790    1.4793 C   0  0  0  0  0  0  0  0  0  0  0  0
    2.9258   -1.6047   -1.4129 C   0  0  0  0  0  0  0  0  0  0  0  0
   -0.0452    2.3510   -1.2058 H   0  0  0  0  0  0  0  0  0  0  0  0
   -0.7185    0.6540    0.5068 H   0  0  0  0  0  0  0  0  0  0  0  0
   -1.2081    1.9241    1.6117 H   0  0  0  0  0  0  0  0  0  0  0  0
   -0.7648    4.4621    0.8513 H   0  0  0  0  0  0  0  0  0  0  0  0
   -0.0896    4.7182   -0.7523 H   0  0  0  0  0  0  0  0  0  0  0  0
   -2.1021    3.8203   -1.8187 H   0  0  0  0  0  0  0  0  0  0  0  0
   -2.5805    5.0580   -0.6590 H   0  0  0  0  0  0  0  0  0  0  0  0
   -4.0182    3.0445   -0.5370 H   0  0  0  0  0  0  0  0  0  0  0  0
   -3.2068    3.3567    1.0025 H   0  0  0  0  0  0  0  0  0  0  0  0
   -4.3948    0.9246    0.2712 H   0  0  0  0  0  0  0  0  0  0  0  0
   -3.3288    0.8133    1.6479 H   0  0  0  0  0  0  0  0  0  0  0  0
    1.2885    3.3458    1.2268 H   0  0  0  0  0  0  0  0  0  0  0  0
   -2.0461   -1.2041    1.9511 H   0  0  0  0  0  0  0  0  0  0  0  0
    0.8920    0.4716   -1.0820 H   0  0  0  0  0  0  0  0  0  0  0  0
   -4.0021   -0.4639   -1.8131 H   0  0  0  0  0  0  0  0  0  0  0  0
    3.4575    2.5524    1.7389 H   0  0  0  0  0  0  0  0  0  0  0  0
    5.1924    0.7997    1.4606 H   0  0  0  0  0  0  0  0  0  0  0  0
   -3.5134   -2.7789   -2.5214 H   0  0  0  0  0  0  0  0  0  0  0  0
   -2.2981   -4.3128   -1.0184 H   0  0  0  0  0  0  0  0  0  0  0  0
   -1.5008   -4.8195    1.1641 H   0  0  0  0  0  0  0  0  0  0  0  0
   -1.7782   -3.7098    2.4908 H   0  0  0  0  0  0  0  0  0  0  0  0
    2.2208   -2.0530   -2.0988 H   0  0  0  0  0  0  0  0  0  0  0  0
    5.6362   -1.6691   -0.0037 H   0  0  0  0  0  0  0  0  0  0  0  0
    0.2301   -2.5717    1.9276 H   0  0  0  0  0  0  0  0  0  0  0  0
    0.5274   -4.1557    2.1558 H   0  0  0  0  0  0  0  0  0  0  0  0
  1  7  1  0  0  0  0
  1 10  1  0  0  0  0
  1 11  1  0  0  0  0
  2  6  1  0  0  0  0
  2 13  1  0  0  0  0
  2 37  1  0  0  0  0
  3  4  1  0  0  0  0
  3 20  1  0  0  0  0
  3 48  1  0  0  0  0
  4 25  2  0  0  0  0
  5 24  1  0  0  0  0
  5 49  1  0  0  0  0
  5 50  1  0  0  0  0
  6  7  1  0  0  0  0
  6  8  1  0  0  0  0
  6 26  1  0  0  0  0
  7 27  1  0  0  0  0
  7 28  1  0  0  0  0
  8  9  1  0  0  0  0
  8 29  1  0  0  0  0
  8 30  1  0  0  0  0
  9 10  1  0  0  0  0
  9 31  1  0  0  0  0
  9 32  1  0  0  0  0
 10 33  1  0  0  0  0
 10 34  1  0  0  0  0
 11 12  1  0  0  0  0
 11 35  1  0  0  0  0
 11 36  1  0  0  0  0
 12 14  1  0  0  0  0
 12 16  2  0  0  0  0
 13 15  2  0  0  0  0
 13 17  1  0  0  0  0
 14 19  2  0  0  0  0
 14 38  1  0  0  0  0
 15 18  1  0  0  0  0
 15 39  1  0  0  0  0
 16 22  1  0  0  0  0
 16 40  1  0  0  0  0
 17 21  2  0  0  0  0
 17 41  1  0  0  0  0
 18 20  2  0  0  0  0
 18 25  1  0  0  0  0
 19 23  1  0  0  0  0
 19 24  1  0  0  0  0
 20 21  1  0  0  0  0
 21 42  1  0  0  0  0
 22 23  2  0  0  0  0
 22 43  1  0  0  0  0
 23 44  1  0  0  0  0
 24 45  1  0  0  0  0
 24 46  1  0  0  0  0
 25 47  1  0  0  0  0
M  END
> <PUBCHEM_COMPOUND_CID>
25008846

> <PUBCHEM_CONFORMER_RMSD>
1

> <PUBCHEM_CONFORMER_DIVERSEORDER>
1
178
150
108
214
199
231
210
226
44
116
53
77
146
117
192
63
18
132
167
223
23
184
101
198
86
119
165
137
156
162
233
106
227
217
195
5
109
149
179
91
175
189
129
172
147
54
218
64
58
81
118
131
230
99
94
34
102
74
4
139
168
83
124
55
42
121
112
21
115
88
148
212
209
120
30
89
161
57
41
27
111
177
204
206
215
170
188
29
205
51
144
221
142
8
62
78
48
69
2
10
123
194
38
100
211
174
187
25
72
19
71
134
32
140
60
24
73
207
40
138
229
33
216
43
7
22
203
96
180
133
171
182
6
154
85
107
76
201
136
130
93
87
28
103
197
145
135
155
228
219
141
208
66
213
190
65
80
160
59
35
52
234
220
13
61
39
36
158
176
26
127
169
173
152
128
222
95
125
196
3
47
15
49
104
68
163
12
67
90
183
232
20
37
84
79
164
16
193
110
92
157
14
113
153
224
143
151
225
97
200
75
191
186
82
159
31
98
9
56
45
126
166
105
17
122
202
70
46
11
114
50
181
185

> <PUBCHEM_MMFF94_PARTIAL_CHARGES>
34
1 -0.81
10 0.27
11 0.41
12 -0.14
13 0.1
14 -0.15
15 -0.15
16 -0.15
17 -0.15
19 -0.14
2 -0.87
20 -0.15
21 -0.15
22 -0.15
23 -0.15
24 0.41
25 0.14
3 0.3
37 0.4
38 0.15
39 0.15
4 -0.71
40 0.15
41 0.15
42 0.15
43 0.15
44 0.15
47 0.15
48 0.27
49 0.36
5 -0.99
50 0.36
6 0.37
7 0.27

> <PUBCHEM_EFFECTIVE_ROTOR_COUNT>
6.2

> <PUBCHEM_PHARMACOPHORE_FEATURES>
11
1 1 cation
1 2 cation
1 2 donor
1 3 donor
1 4 acceptor
1 5 cation
1 5 donor
5 3 4 18 20 25 rings
6 1 6 7 8 9 10 rings
6 12 14 16 19 22 23 rings
6 13 15 17 18 20 21 rings

> <PUBCHEM_HEAVY_ATOM_COUNT>
25

> <PUBCHEM_ATOM_DEF_STEREO_COUNT>
0

> <PUBCHEM_ATOM_UDEF_STEREO_COUNT>
1

> <PUBCHEM_BOND_DEF_STEREO_COUNT>
0

> <PUBCHEM_BOND_UDEF_STEREO_COUNT>
0

> <PUBCHEM_ISOTOPIC_ATOM_COUNT>
0

> <PUBCHEM_COMPONENT_COUNT>
1

> <PUBCHEM_CACTVS_TAUTO_COUNT>
2

> <PUBCHEM_CONFORMER_ID>
017D9ACE00000001

> <PUBCHEM_MMFF94_ENERGY>
58.1171

> <PUBCHEM_FEATURE_SELFOVERLAP>
55.913

> <PUBCHEM_SHAPE_FINGERPRINT>
107951 10 17244443906112072793
1100329 8 17543910101193435618
11552529 35 17775566476389426777
12156800 1 16263699368273209511
12202916 173 17906705327208818554
12422481 6 18127159479500632547
12553582 1 18121512502942735293
12712778 12 18191576455368009234
12788726 201 18408316683595462274
13122387 1 17402338066105604182
13402501 40 18199475367627195228
1361 2 15601170438981023275
140371 6 18121776403219739049
14251757 5 18194146073860044310
14363568 33 17038409028979908328
14659021 117 18337942463640425034
14725015 67 18410853248479188483
15420108 30 17913782618202270465
15927050 60 17764587613165343853
17627616 140 17614286563168932594
19315092 285 16053208050577175543
19930381 70 17691404539552283839
20600515 1 17751624675282339182
22113638 7 16967435003561833547
23559900 14 17762043746520781265
3298306 158 17760086216259551589
445580 102 17399237941499781803
469060 322 17268309085002164588
5265222 85 17975722518466974708
5309563 4 17473832096220933555
613672 6 18122047969331870899
9709674 26 18341611538079252360

> <PUBCHEM_SHAPE_MULTIPOLES>
489.58
8.18
5.92
1.31
6.61
2.03
-0.03
-3.85
-1.02
-4.28
0.2
-0.1
-1.07
1.21

> <PUBCHEM_SHAPE_SELFOVERLAP>
1058.991

> <PUBCHEM_SHAPE_VOLUME>
266.8

> <PUBCHEM_COORDINATE_TYPE>
2
5
10

$$$$
57446054
  -OEChem-05102415113D

 42 45  0     1  0  0  0  0  0999 V2000
   -3.8089   -3.3136    1.3482 Cl  0  0  0  0  0  0  0  0  0  0  0  0
   -5.9847   -2.9203   -1.0148 Cl  0  0  0  0  0  0  0  0  0  0  0  0
   -1.6773    2.1009    0.0464 N   0  0  2  0  0  0  0  0  0  0  0  0
    1.8702    1.9004    0.0819 N   0  0  0  0  0  0  0  0  0  0  0  0
    5.3753   -2.2794   -0.4521 N   0  0  0  0  0  0  0  0  0  0  0  0
    6.4129   -1.9359    0.3293 N   0  0  0  0  0  0  0  0  0  0  0  0
    0.5816    2.0338   -0.5553 C   0  0  2  0  0  0  0  0  0  0  0  0
    0.1032    3.4872   -0.5495 C   0  0  0  0  0  0  0  0  0  0  0  0
   -0.4888    1.2628    0.2132 C   0  0  0  0  0  0  0  0  0  0  0  0
   -1.2003    3.4703    0.2383 C   0  0  0  0  0  0  0  0  0  0  0  0
   -2.7405    1.7483    0.9757 C   0  0  0  0  0  0  0  0  0  0  0  0
    2.7086    0.8120   -0.0985 C   0  0  0  0  0  0  0  0  0  0  0  0
   -3.5431    0.5711    0.4889 C   0  0  0  0  0  0  0  0  0  0  0  0
    3.9412    0.7760    0.5655 C   0  0  0  0  0  0  0  0  0  0  0  0
    2.3144   -0.2318   -0.9377 C   0  0  0  0  0  0  0  0  0  0  0  0
   -3.3487   -0.6885    1.0555 C   0  0  0  0  0  0  0  0  0  0  0  0
   -4.4817    0.7407   -0.5289 C   0  0  0  0  0  0  0  0  0  0  0  0
    4.7769   -0.3362    0.3696 C   0  0  0  0  0  0  0  0  0  0  0  0
    4.3597   -1.3617   -0.4716 C   0  0  0  0  0  0  0  0  0  0  0  0
    3.1351   -1.3456   -1.1428 C   0  0  0  0  0  0  0  0  0  0  0  0
   -4.0929   -1.7786    0.6047 C   0  0  0  0  0  0  0  0  0  0  0  0
   -5.2258   -0.3495   -0.9800 C   0  0  0  0  0  0  0  0  0  0  0  0
    6.0452   -0.7533    0.8273 C   0  0  0  0  0  0  0  0  0  0  0  0
   -5.0316   -1.6092   -0.4132 C   0  0  0  0  0  0  0  0  0  0  0  0
    0.6172    1.7296   -1.6091 H   0  0  0  0  0  0  0  0  0  0  0  0
   -0.0925    3.8107   -1.5799 H   0  0  0  0  0  0  0  0  0  0  0  0
    0.8221    4.1910   -0.1167 H   0  0  0  0  0  0  0  0  0  0  0  0
   -0.6384    0.2631   -0.2070 H   0  0  0  0  0  0  0  0  0  0  0  0
   -0.2134    1.1520    1.2709 H   0  0  0  0  0  0  0  0  0  0  0  0
   -1.9090    4.2130   -0.1417 H   0  0  0  0  0  0  0  0  0  0  0  0
   -0.9990    3.6841    1.2959 H   0  0  0  0  0  0  0  0  0  0  0  0
   -3.4436    2.5880    1.0726 H   0  0  0  0  0  0  0  0  0  0  0  0
   -2.3636    1.5758    1.9929 H   0  0  0  0  0  0  0  0  0  0  0  0
    2.1452    2.5942    0.7689 H   0  0  0  0  0  0  0  0  0  0  0  0
    4.2505    1.5870    1.2190 H   0  0  0  0  0  0  0  0  0  0  0  0
    1.3647   -0.2369   -1.4632 H   0  0  0  0  0  0  0  0  0  0  0  0
   -2.6146   -0.8165    1.8481 H   0  0  0  0  0  0  0  0  0  0  0  0
   -4.6424    1.7171   -0.9785 H   0  0  0  0  0  0  0  0  0  0  0  0
    2.8308   -2.1581   -1.7933 H   0  0  0  0  0  0  0  0  0  0  0  0
   -5.9530   -0.1993   -1.7741 H   0  0  0  0  0  0  0  0  0  0  0  0
    6.7161   -0.2428    1.5037 H   0  0  0  0  0  0  0  0  0  0  0  0
    5.4224   -3.1600   -0.9492 H   0  0  0  0  0  0  0  0  0  0  0  0
  1 21  1  0  0  0  0
  2 24  1  0  0  0  0
  3  9  1  0  0  0  0
  3 10  1  0  0  0  0
  3 11  1  0  0  0  0
  4  7  1  0  0  0  0
  4 12  1  0  0  0  0
  4 34  1  0  0  0  0
  5  6  1  0  0  0  0
  5 19  1  0  0  0  0
  5 42  1  0  0  0  0
  6 23  2  0  0  0  0
  7  8  1  0  0  0  0
  7  9  1  0  0  0  0
  7 25  1  0  0  0  0
  8 10  1  0  0  0  0
  8 26  1  0  0  0  0
  8 27  1  0  0  0  0
  9 28  1  0  0  0  0
  9 29  1  0  0  0  0
 10 30  1  0  0  0  0
 10 31  1  0  0  0  0
 11 13  1  0  0  0  0
 11 32  1  0  0  0  0
 11 33  1  0  0  0  0
 12 14  2  0  0  0  0
 12 15  1  0  0  0  0
 13 16  2  0  0  0  0
 13 17  1  0  0  0  0
 14 18  1  0  0  0  0
 14 35  1  0  0  0  0
 15 20  2  0  0  0  0
 15 36  1  0  0  0  0
 16 21  1  0  0  0  0
 16 37  1  0  0  0  0
 17 22  2  0  0  0  0
 17 38  1  0  0  0  0
 18 19  2  0  0  0  0
 18 23  1  0  0  0  0
 19 20  1  0  0  0  0
 20 39  1  0  0  0  0
 21 24  2  0  0  0  0
 22 24  1  0  0  0  0
 22 40  1  0  0  0  0
 23 41  1  0  0  0  0
M  END
> <PUBCHEM_COMPOUND_CID>
57446054

> <PUBCHEM_CONFORMER_RMSD>
0.8

> <PUBCHEM_CONFORMER_DIVERSEORDER>
4
152
13
268
325
388
364
466
353
313
368
370
460
150
71
276
457
74
309
417
310
272
98
97
88
161
321
366
233
10
459
421
188
12
181
437
374
194
328
482
117
174
338
109
396
304
244
2
329
230
112
342
209
52
14
393
200
149
258
436
410
403
241
62
69
474
94
414
183
57
228
141
407
484
127
87
213
246
210
286
319
422
222
448
48
76
359
479
445
477
373
72
406
411
317
95
305
277
345
438
231
139
433
144
423
225
278
34
239
253
99
155
363
108
28
402
350
46
470
111
419
387
119
131
41
358
42
348
442
37
177
195
377
160
264
302
11
386
446
185
90
290
385
316
291
405
223
269
397
147
179
274
254
327
315
142
102
45
351
301
394
441
247
399
56
61
136
463
33
255
265
400
285
263
468
78
334
273
365
201
420
31
296
453
172
425
240
124
473
220
3
262
123
227
330
167
261
476
205
165
214
271
15
226
221
380
175
29
134
145
483
236
462
299
352
465
428
454
478
27
132
101
412
378
361
401
251
110
475
196
318
312
178
427
158
20
298
275
451
326
63
347
372
39
113
343
91
294
337
429
480
1
50
207
8
324
171
106
237
322
159
73
398
143
229
40
344
30
36
257
323
314
238
281
81
456
38
472
44
19
295
168
260
426
125
336
135
5
242
235
288
356
390
367
114
435
218
303
289
59
392
6
82
331
224
173
9
151
266
43
190
64
219
208
17
256
118
354
408
35
284
234
413
357
138
70
369
279
79
424
362
7
122
245
47
58
311
199
432
93
51
116
306
447
126
96
65
259
169
148
416
130
146
280
156
211
84
418
355
332
360
232
166
300
467
471
404
434
16
308
297
192
248
431
83
32
346
383
49
85
203
333
104
140
202
23
184
450
292
157
176
381
375
198
384
100
449
77
68
391
430
89
187
249
182
67
137
455
461
133
115
409
320
376
121
92
379
103
75
307
162
216
21
60
215
382
80
293
340
204
283
458
163
55
153
25
18
371
415
107
464
250
170
287
180
443
335
206
212
282
270
452
120
26
395
164
339
267
217
469
389
191
54
481
440
154
197
105
349
24
128
189
193
53
444
252
22
129
243
341
86
66
186
439

> <PUBCHEM_MMFF94_PARTIAL_CHARGES>
31
1 -0.18
10 0.27
11 0.41
12 0.1
13 -0.14
14 -0.15
15 -0.15
16 -0.15
17 -0.15
19 -0.15
2 -0.18
20 -0.15
21 0.18
22 -0.15
23 0.14
24 0.18
3 -0.81
34 0.4
35 0.15
36 0.15
37 0.15
38 0.15
39 0.15
4 -0.87
40 0.15
41 0.15
42 0.27
5 0.3
6 -0.71
7 0.37
9 0.27

> <PUBCHEM_EFFECTIVE_ROTOR_COUNT>
5

> <PUBCHEM_PHARMACOPHORE_FEATURES>
9
1 3 cation
1 4 cation
1 4 donor
1 5 donor
1 6 acceptor
5 3 7 8 9 10 rings
5 5 6 18 19 23 rings
6 12 14 15 18 19 20 rings
6 13 16 17 21 22 24 rings

> <PUBCHEM_HEAVY_ATOM_COUNT>
24

> <PUBCHEM_ATOM_DEF_STEREO_COUNT>
0

> <PUBCHEM_ATOM_UDEF_STEREO_COUNT>
1

> <PUBCHEM_BOND_DEF_STEREO_COUNT>
0

> <PUBCHEM_BOND_UDEF_STEREO_COUNT>
0

> <PUBCHEM_ISOTOPIC_ATOM_COUNT>
0

> <PUBCHEM_COMPONENT_COUNT>
1

> <PUBCHEM_CACTVS_TAUTO_COUNT>
2

> <PUBCHEM_CONFORMER_ID>
036C8EA600000004

> <PUBCHEM_MMFF94_ENERGY>
62.9964

> <PUBCHEM_FEATURE_SELFOVERLAP>
45.763

> <PUBCHEM_SHAPE_FINGERPRINT>
10571361 74 17969774194989621090
10622 236 17484787553303777575
10693767 8 17767388447481108911
11200772 48 18043240242206050877
11211813 128 18273213102534802302
12166972 35 17895196644595554823
12363563 72 18337122227781864285
12760667 363 18410573968388462841
12838863 1 18340755027233307039
13583140 156 15410323343749187177
13782708 43 18058735689767480974
13828863 39 8790615814426138843
13885169 86 9727345866058582339
13911882 115 17917154880103700982
14168556 18 18339922719238697728
14344974 204 18269553854407246158
14347329 18 9223224127193270342
14429380 30 18409452513403844242
1454969 45 18338518672649181516
14848178 5 18410854377923133673
14848178 96 8934733149405231411
14866123 147 18339649950034193209
14950920 106 16845570941555687755
15183329 4 12829487017883731312
15250474 111 18043808685200759738
15352361 1 18410857672236935221
15510800 12 18189334739863241371
15728490 83 18261405420619333587
15803439 3 17101966947470161173
17138139 8 17676204693457093914
17492 89 18192716872132131299
17857418 61 18337110073187563786
19141452 34 18269284460830192905
19315092 285 17274538866503596875
20028762 73 18342173358773416350
20403669 9 18412269432345329927
20567600 70 18335420218210085048
21033648 29 13397815812870346571
21033650 10 16877933894025940941
21315763 87 17917142922197460499
21458453 9 18200301243353322544
22122407 14 15769486526370758848
22393880 68 18040984160040263345
23428019 142 17168148965663879619
23559900 14 18337383963511155249
23572383 38 18410569625944476547
25122255 55 18413110549913442583
2838139 119 8070021151973166880
3004659 81 18040150725557012372
312425 54 17988366940613815728
339767 52 18410568479119708087
38570 142 14260212372005852456
4073 2 18270118981765661096
4280585 95 18334287665177491217
44062 13 18114181965005935715
463206 1 18260274057392023779
5104073 3 18131074839510811753
559249 180 18411418380940250953
5718773 13 18269548494239957783
5924683 9 18271527485798592233
613672 6 18410858763174660663
6431902 208 18411980260534381022
7970288 3 18411415146165550719
8863177 126 18056484950805527566
88748 71 18190190164367563755
9709674 26 18191587660989957241

> <PUBCHEM_SHAPE_MULTIPOLES>
477.72
15.75
4.04
1.11
6.99
1.2
0.03
-15.98
-0.44
-2.42
0.1
-0.66
-0.45
0.08

> <PUBCHEM_SHAPE_SELFOVERLAP>
1026.569

> <PUBCHEM_SHAPE_VOLUME>
266.8

> <PUBCHEM_COORDINATE_TYPE>
2
5
10

$$$$
57446055
  -OEChem-05102415113D

 48 51  0     1  0  0  0  0  0999 V2000
   -2.9372   -3.8671    0.2964 F   0  0  0  0  0  0  0  0  0  0  0  0
   -1.3396   -2.8562    1.3704 F   0  0  0  0  0  0  0  0  0  0  0  0
   -3.3789   -2.7331    2.0984 F   0  0  0  0  0  0  0  0  0  0  0  0
   -1.2696    2.8232   -0.0977 N   0  0  2  0  0  0  0  0  0  0  0  0
    2.3167    2.1322    0.7091 N   0  0  0  0  0  0  0  0  0  0  0  0
    3.9691   -2.9652   -0.4309 N   0  0  0  0  0  0  0  0  0  0  0  0
    3.1375   -3.3666   -1.4066 N   0  0  0  0  0  0  0  0  0  0  0  0
    1.2046    2.7226   -0.0066 C   0  0  2  0  0  0  0  0  0  0  0  0
    1.2759    4.2463    0.1005 C   0  0  0  0  0  0  0  0  0  0  0  0
   -0.1178    2.1947    0.5655 C   0  0  0  0  0  0  0  0  0  0  0  0
    0.0349    4.8822   -0.5162 C   0  0  0  0  0  0  0  0  0  0  0  0
   -1.2454    4.2830    0.0671 C   0  0  0  0  0  0  0  0  0  0  0  0
   -2.5219    2.2709    0.4186 C   0  0  0  0  0  0  0  0  0  0  0  0
   -2.8060    0.9037   -0.1444 C   0  0  0  0  0  0  0  0  0  0  0  0
    2.7854    0.8524    0.4726 C   0  0  0  0  0  0  0  0  0  0  0  0
    2.1683    0.0643   -0.5072 C   0  0  0  0  0  0  0  0  0  0  0  0
   -2.5951   -0.2309    0.6390 C   0  0  0  0  0  0  0  0  0  0  0  0
    3.8646    0.3646    1.2117 C   0  0  0  0  0  0  0  0  0  0  0  0
   -3.2800    0.7718   -1.4497 C   0  0  0  0  0  0  0  0  0  0  0  0
    2.6592   -1.2326   -0.7324 C   0  0  0  0  0  0  0  0  0  0  0  0
   -2.8584   -1.4976    0.1174 C   0  0  0  0  0  0  0  0  0  0  0  0
    3.7353   -1.6934    0.0178 C   0  0  0  0  0  0  0  0  0  0  0  0
    4.3646   -0.9242    0.9990 C   0  0  0  0  0  0  0  0  0  0  0  0
   -3.5430   -0.4948   -1.9715 C   0  0  0  0  0  0  0  0  0  0  0  0
   -3.3325   -1.6295   -1.1879 C   0  0  0  0  0  0  0  0  0  0  0  0
    2.3419   -2.3098   -1.5874 C   0  0  0  0  0  0  0  0  0  0  0  0
   -2.6325   -2.7110    0.9548 C   0  0  0  0  0  0  0  0  0  0  0  0
    1.2687    2.4965   -1.0792 H   0  0  0  0  0  0  0  0  0  0  0  0
   -0.1580    1.1096    0.4399 H   0  0  0  0  0  0  0  0  0  0  0  0
   -0.1508    2.3789    1.6492 H   0  0  0  0  0  0  0  0  0  0  0  0
    1.3517    4.5497    1.1531 H   0  0  0  0  0  0  0  0  0  0  0  0
    2.1771    4.6229   -0.3981 H   0  0  0  0  0  0  0  0  0  0  0  0
    0.0494    5.9641   -0.3424 H   0  0  0  0  0  0  0  0  0  0  0  0
    0.0490    4.7331   -1.6034 H   0  0  0  0  0  0  0  0  0  0  0  0
   -1.3330    4.5576    1.1267 H   0  0  0  0  0  0  0  0  0  0  0  0
   -2.0968    4.7327   -0.4582 H   0  0  0  0  0  0  0  0  0  0  0  0
   -3.3689    2.9086    0.1282 H   0  0  0  0  0  0  0  0  0  0  0  0
   -2.5382    2.2564    1.5171 H   0  0  0  0  0  0  0  0  0  0  0  0
    2.7305    2.6527    1.4750 H   0  0  0  0  0  0  0  0  0  0  0  0
    1.3348    0.3951   -1.1139 H   0  0  0  0  0  0  0  0  0  0  0  0
   -2.2254   -0.1326    1.6570 H   0  0  0  0  0  0  0  0  0  0  0  0
    4.3361    0.9864    1.9703 H   0  0  0  0  0  0  0  0  0  0  0  0
   -3.4480    1.6481   -2.0702 H   0  0  0  0  0  0  0  0  0  0  0  0
    5.2027   -1.3048    1.5720 H   0  0  0  0  0  0  0  0  0  0  0  0
   -3.9118   -0.5974   -2.9879 H   0  0  0  0  0  0  0  0  0  0  0  0
   -3.5435   -2.6067   -1.6133 H   0  0  0  0  0  0  0  0  0  0  0  0
    1.5627   -2.3671   -2.3343 H   0  0  0  0  0  0  0  0  0  0  0  0
    4.6804   -3.6118   -0.1133 H   0  0  0  0  0  0  0  0  0  0  0  0
  1 27  1  0  0  0  0
  2 27  1  0  0  0  0
  3 27  1  0  0  0  0
  4 10  1  0  0  0  0
  4 12  1  0  0  0  0
  4 13  1  0  0  0  0
  5  8  1  0  0  0  0
  5 15  1  0  0  0  0
  5 39  1  0  0  0  0
  6  7  1  0  0  0  0
  6 22  1  0  0  0  0
  6 48  1  0  0  0  0
  7 26  2  0  0  0  0
  8  9  1  0  0  0  0
  8 10  1  0  0  0  0
  8 28  1  0  0  0  0
  9 11  1  0  0  0  0
  9 31  1  0  0  0  0
  9 32  1  0  0  0  0
 10 29  1  0  0  0  0
 10 30  1  0  0  0  0
 11 12  1  0  0  0  0
 11 33  1  0  0  0  0
 11 34  1  0  0  0  0
 12 35  1  0  0  0  0
 12 36  1  0  0  0  0
 13 14  1  0  0  0  0
 13 37  1  0  0  0  0
 13 38  1  0  0  0  0
 14 17  2  0  0  0  0
 14 19  1  0  0  0  0
 15 16  2  0  0  0  0
 15 18  1  0  0  0  0
 16 20  1  0  0  0  0
 16 40  1  0  0  0  0
 17 21  1  0  0  0  0
 17 41  1  0  0  0  0
 18 23  2  0  0  0  0
 18 42  1  0  0  0  0
 19 24  2  0  0  0  0
 19 43  1  0  0  0  0
 20 22  2  0  0  0  0
 20 26  1  0  0  0  0
 21 25  2  0  0  0  0
 21 27  1  0  0  0  0
 22 23  1  0  0  0  0
 23 44  1  0  0  0  0
 24 25  1  0  0  0  0
 24 45  1  0  0  0  0
 25 46  1  0  0  0  0
 26 47  1  0  0  0  0
M  END
> <PUBCHEM_COMPOUND_CID>
57446055

> <PUBCHEM_CONFORMER_RMSD>
0.8

> <PUBCHEM_CONFORMER_DIVERSEORDER>
1
16
400
324
371
419
268
228
241
78
121
211
99
177
331
244
138
125
408
136
318
166
83
357
89
276
304
144
67
49
190
283
379
310
221
247
31
35
201
130
132
194
72
73
127
116
152
206
287
259
412
257
11
264
320
414
286
188
181
398
388
365
271
251
135
293
69
377
222
409
285
120
141
114
148
146
275
7
272
210
261
87
253
23
199
95
213
133
2
249
243
278
106
352
420
217
336
176
348
317
274
332
129
326
350
339
364
291
263
212
279
27
307
235
322
220
134
250
84
179
337
338
48
301
168
175
389
223
38
191
53
384
238
407
392
254
303
328
90
163
300
311
313
115
299
155
112
325
335
349
396
255
142
333
290
24
327
245
81
417
256
137
246
413
375
372
169
62
42
218
305
381
161
387
308
393
411
109
410
343
258
189
403
280
288
184
196
66
416
21
151
347
4
422
108
193
5
248
105
204
240
93
153
150
362
239
79
154
80
34
270
289
298
14
82
97
122
265
20
71
219
344
378
224
346
319
359
355
8
266
96
3
363
269
12
225
342
277
353
47
119
143
309
43
139
110
260
358
117
173
10
242
200
123
385
91
197
118
373
386
227
192
147
323
321
367
32
302
312
65
237
160
113
203
401
231
40
399
58
140
19
180
424
98
159
149
292
397
252
162
64
369
391
45
70
183
52
9
421
195
18
366
156
6
262
28
60
361
164
85
22
186
198
51
167
205
75
145
37
360
281
50
158
382
406
402
101
207
36
329
380
124
102
236
131
44
340
63
229
368
77
405
92
282
74
354
273
330
294
61
94
374
370
41
170
314
404
234
297
103
345
208
15
33
315
425
418
306
341
395
39
76
356
233
394
267
316
415
29
230
215
296
295
126
104
376
216
390
128
214
423
165
334
157
226
232
107
59
202
17
187
351
178
185
55
25
172
209
26
30
182
57
68
100
174
284
54
13
171
56
111
88
46
86
383

> <PUBCHEM_MMFF94_PARTIAL_CHARGES>
34
1 -0.34
10 0.27
12 0.27
13 0.41
14 -0.14
15 0.1
16 -0.15
17 -0.15
18 -0.15
19 -0.15
2 -0.34
21 -0.14
22 -0.15
23 -0.15
24 -0.15
25 -0.15
26 0.14
27 1.16
3 -0.34
39 0.4
4 -0.81
40 0.15
41 0.15
42 0.15
43 0.15
44 0.15
45 0.15
46 0.15
47 0.15
48 0.27
5 -0.87
6 0.3
7 -0.71
8 0.37

> <PUBCHEM_EFFECTIVE_ROTOR_COUNT>
6.2

> <PUBCHEM_PHARMACOPHORE_FEATURES>
9
1 4 cation
1 5 cation
1 5 donor
1 6 donor
1 7 acceptor
5 6 7 20 22 26 rings
6 14 17 19 21 24 25 rings
6 15 16 18 20 22 23 rings
6 4 8 9 10 11 12 rings

> <PUBCHEM_HEAVY_ATOM_COUNT>
27

> <PUBCHEM_ATOM_DEF_STEREO_COUNT>
0

> <PUBCHEM_ATOM_UDEF_STEREO_COUNT>
1

> <PUBCHEM_BOND_DEF_STEREO_COUNT>
0

> <PUBCHEM_BOND_UDEF_STEREO_COUNT>
0

> <PUBCHEM_ISOTOPIC_ATOM_COUNT>
0

> <PUBCHEM_COMPONENT_COUNT>
1

> <PUBCHEM_CACTVS_TAUTO_COUNT>
2

> <PUBCHEM_CONFORMER_ID>
036C8EA700000001

> <PUBCHEM_MMFF94_ENERGY>
58.9554

> <PUBCHEM_FEATURE_SELFOVERLAP>
45.763

> <PUBCHEM_SHAPE_FINGERPRINT>
11828532 37 17533771874300174947
12202916 173 18122589912611102090
12553582 1 18411709789358834716
12712778 12 17758951529213982426
12788726 201 18121492462667354874
13122387 1 17835237840033284126
1361 2 16898204842677986587
140371 6 18411128156203243328
14251757 5 17979098001989477030
14363568 33 17978248367190063944
14659021 117 18194387910636210338
14725015 67 18052253995105715431
15322534 239 17041776291725055775
16719943 64 17472426447982947906
17627616 140 16751280887486252759
19315092 285 16197302270580130773
19930381 70 18123187080869709491
20600515 1 17968364689595579244
20764821 26 18337121110979623674
20775530 9 18189056563030653055
21987440 362 15442622519907314604
23559900 14 18193541492625338801
3493558 16 16553155622944879771
445580 102 18121216738483067950
469060 322 17554846144638043756
5265222 85 17401513463124647276
5309563 4 18123472953734324891
613672 6 18338499915761420178
7987 15 18190473829355751859
9709674 26 18341890749645036818

> <PUBCHEM_SHAPE_MULTIPOLES>
513.9
8.09
6.47
1.45
4.39
4.36
-0.09
-6.56
-0.4
-2
0.32
-0.61
-1.26
1.9

> <PUBCHEM_SHAPE_SELFOVERLAP>
1120.151

> <PUBCHEM_SHAPE_VOLUME>
281.1

> <PUBCHEM_COORDINATE_TYPE>
2
5
10

$$$$
57446056
  -OEChem-05102415113D

 45 48  0     1  0  0  0  0  0999 V2000
    7.6043    0.0512   -0.2692 F   0  0  0  0  0  0  0  0  0  0  0  0
    6.2832    1.7728   -0.4054 F   0  0  0  0  0  0  0  0  0  0  0  0
    6.7418    0.9118    1.5316 F   0  0  0  0  0  0  0  0  0  0  0  0
    0.7040   -0.0084   -0.1335 N   0  0  1  0  0  0  0  0  0  0  0  0
   -2.4678    1.5755   -0.3397 N   0  0  0  0  0  0  0  0  0  0  0  0
   -7.4061   -0.6510    0.4993 N   0  0  0  0  0  0  0  0  0  0  0  0
   -7.2524   -1.9330    0.1284 N   0  0  0  0  0  0  0  0  0  0  0  0
   -1.3777    0.7803   -0.8534 C   0  0  1  0  0  0  0  0  0  0  0  0
   -0.2715    1.6607   -1.4388 C   0  0  0  0  0  0  0  0  0  0  0  0
   -0.7040   -0.0083    0.2670 C   0  0  0  0  0  0  0  0  0  0  0  0
    0.9616    1.3541   -0.5991 C   0  0  0  0  0  0  0  0  0  0  0  0
    1.5903   -0.4009    0.9521 C   0  0  0  0  0  0  0  0  0  0  0  0
    2.9456   -0.8187    0.4463 C   0  0  0  0  0  0  0  0  0  0  0  0
   -3.7401    1.0777   -0.1042 C   0  0  0  0  0  0  0  0  0  0  0  0
   -4.0113   -0.2701   -0.3710 C   0  0  0  0  0  0  0  0  0  0  0  0
    4.0339    0.0446    0.5726 C   0  0  0  0  0  0  0  0  0  0  0  0
   -4.7316    1.9246    0.3947 C   0  0  0  0  0  0  0  0  0  0  0  0
    3.1125   -2.0692   -0.1490 C   0  0  0  0  0  0  0  0  0  0  0  0
   -5.3067   -0.7554   -0.1257 C   0  0  0  0  0  0  0  0  0  0  0  0
    5.2894   -0.3426    0.1039 C   0  0  0  0  0  0  0  0  0  0  0  0
   -6.2752    0.1097    0.3712 C   0  0  0  0  0  0  0  0  0  0  0  0
   -6.0258    1.4564    0.6440 C   0  0  0  0  0  0  0  0  0  0  0  0
    4.3679   -2.4563   -0.6180 C   0  0  0  0  0  0  0  0  0  0  0  0
    5.4564   -1.5931   -0.4913 C   0  0  0  0  0  0  0  0  0  0  0  0
   -5.9740   -1.9927   -0.2512 C   0  0  0  0  0  0  0  0  0  0  0  0
    6.4532    0.5804    0.2385 C   0  0  0  0  0  0  0  0  0  0  0  0
   -1.7056    0.1215   -1.6674 H   0  0  0  0  0  0  0  0  0  0  0  0
   -0.5038    2.7309   -1.4324 H   0  0  0  0  0  0  0  0  0  0  0  0
   -0.0888    1.3710   -2.4816 H   0  0  0  0  0  0  0  0  0  0  0  0
   -0.8437    0.4811    1.2407 H   0  0  0  0  0  0  0  0  0  0  0  0
   -1.0967   -1.0279    0.3373 H   0  0  0  0  0  0  0  0  0  0  0  0
    1.0269    2.0671    0.2329 H   0  0  0  0  0  0  0  0  0  0  0  0
    1.8742    1.4296   -1.1986 H   0  0  0  0  0  0  0  0  0  0  0  0
    1.1697   -1.2683    1.4805 H   0  0  0  0  0  0  0  0  0  0  0  0
    1.6804    0.3828    1.7166 H   0  0  0  0  0  0  0  0  0  0  0  0
   -2.2774    2.5286   -0.0493 H   0  0  0  0  0  0  0  0  0  0  0  0
   -3.2748   -0.9659   -0.7538 H   0  0  0  0  0  0  0  0  0  0  0  0
    3.9072    1.0208    1.0345 H   0  0  0  0  0  0  0  0  0  0  0  0
   -4.5089    2.9702    0.5979 H   0  0  0  0  0  0  0  0  0  0  0  0
    2.2724   -2.7507   -0.2534 H   0  0  0  0  0  0  0  0  0  0  0  0
   -6.7972    2.1126    1.0313 H   0  0  0  0  0  0  0  0  0  0  0  0
    4.4977   -3.4299   -1.0816 H   0  0  0  0  0  0  0  0  0  0  0  0
    6.4256   -1.9139   -0.8631 H   0  0  0  0  0  0  0  0  0  0  0  0
   -5.5799   -2.9353   -0.6040 H   0  0  0  0  0  0  0  0  0  0  0  0
   -8.3150   -0.3559    0.8335 H   0  0  0  0  0  0  0  0  0  0  0  0
  1 26  1  0  0  0  0
  2 26  1  0  0  0  0
  3 26  1  0  0  0  0
  4 10  1  0  0  0  0
  4 11  1  0  0  0  0
  4 12  1  0  0  0  0
  5  8  1  0  0  0  0
  5 14  1  0  0  0  0
  5 36  1  0  0  0  0
  6  7  1  0  0  0  0
  6 21  1  0  0  0  0
  6 45  1  0  0  0  0
  7 25  2  0  0  0  0
  8  9  1  0  0  0  0
  8 10  1  0  0  0  0
  8 27  1  0  0  0  0
  9 11  1  0  0  0  0
  9 28  1  0  0  0  0
  9 29  1  0  0  0  0
 10 30  1  0  0  0  0
 10 31  1  0  0  0  0
 11 32  1  0  0  0  0
 11 33  1  0  0  0  0
 12 13  1  0  0  0  0
 12 34  1  0  0  0  0
 12 35  1  0  0  0  0
 13 16  2  0  0  0  0
 13 18  1  0  0  0  0
 14 15  2  0  0  0  0
 14 17  1  0  0  0  0
 15 19  1  0  0  0  0
 15 37  1  0  0  0  0
 16 20  1  0  0  0  0
 16 38  1  0  0  0  0
 17 22  2  0  0  0  0
 17 39  1  0  0  0  0
 18 23  2  0  0  0  0
 18 40  1  0  0  0  0
 19 21  2  0  0  0  0
 19 25  1  0  0  0  0
 20 24  2  0  0  0  0
 20 26  1  0  0  0  0
 21 22  1  0  0  0  0
 22 41  1  0  0  0  0
 23 24  1  0  0  0  0
 23 42  1  0  0  0  0
 24 43  1  0  0  0  0
 25 44  1  0  0  0  0
M  END
> <PUBCHEM_COMPOUND_CID>
57446056

> <PUBCHEM_CONFORMER_RMSD>
1

> <PUBCHEM_CONFORMER_DIVERSEORDER>
2
171
323
450
31
419
378
464
118
409
193
68
546
3
129
553
334
278
156
353
97
469
397
101
386
197
494
318
259
203
487
155
510
175
257
291
26
372
356
34
249
332
58
16
93
549
12
463
139
71
503
262
374
362
162
140
85
266
267
116
142
367
377
303
146
347
13
238
354
1
292
245
398
470
475
50
6
380
289
186
240
95
4
368
314
338
44
384
19
393
14
181
220
36
280
8
168
178
15
457
161
94
42
138
320
383
38
218
23
481
366
256
307
233
57
477
35
416
11
176
170
9
358
311
420
52
300
537
46
452
56
143
241
81
75
7
346
18
321
225
20
339
51
115
287
527
288
202
10
141
236
254
399
195
69
207
330
535
144
109
5
415
258
513
99
191
524
114
357
149
145
48
63
153
88
111
309
449
286
273
411
325

> <PUBCHEM_MMFF94_PARTIAL_CHARGES>
34
1 -0.34
10 0.27
11 0.27
12 0.41
13 -0.14
14 0.1
15 -0.15
16 -0.15
17 -0.15
18 -0.15
2 -0.34
20 -0.14
21 -0.15
22 -0.15
23 -0.15
24 -0.15
25 0.14
26 1.16
3 -0.34
36 0.4
37 0.15
38 0.15
39 0.15
4 -0.81
40 0.15
41 0.15
42 0.15
43 0.15
44 0.15
45 0.27
5 -0.87
6 0.3
7 -0.71
8 0.37

> <PUBCHEM_EFFECTIVE_ROTOR_COUNT>
6

> <PUBCHEM_PHARMACOPHORE_FEATURES>
9
1 4 cation
1 5 cation
1 5 donor
1 6 donor
1 7 acceptor
5 4 8 9 10 11 rings
5 6 7 19 21 25 rings
6 13 16 18 20 23 24 rings
6 14 15 17 19 21 22 rings

> <PUBCHEM_HEAVY_ATOM_COUNT>
26

> <PUBCHEM_ATOM_DEF_STEREO_COUNT>
0

> <PUBCHEM_ATOM_UDEF_STEREO_COUNT>
1

> <PUBCHEM_BOND_DEF_STEREO_COUNT>
0

> <PUBCHEM_BOND_UDEF_STEREO_COUNT>
0

> <PUBCHEM_ISOTOPIC_ATOM_COUNT>
0

> <PUBCHEM_COMPONENT_COUNT>
1

> <PUBCHEM_CACTVS_TAUTO_COUNT>
2

> <PUBCHEM_CONFORMER_ID>
036C8EA800000002

> <PUBCHEM_MMFF94_ENERGY>
62.8047

> <PUBCHEM_FEATURE_SELFOVERLAP>
45.763

> <PUBCHEM_SHAPE_FINGERPRINT>
10 15 17203328910257989805
10299344 5 18342740714808764975
10391435 84 18334850663056203819
11089746 13 9439401332912228959
11135926 11 15647052630143039769
11315181 36 18411138035729830385
11524674 6 16487252175886828991
11724838 91 18040715883830375828
12236239 1 18411984633085160969
12516196 113 18334576832461792861
12596602 18 18202285762497845987
12730499 353 18272930510613270130
13073987 5 18342739572357793009
13782708 43 18117839902610869758
13899415 154 17561083614168424000
13968360 50 14201390573539792296
14251732 16 18412545409500053506
14251752 14 11025796505082504705
14251764 18 18411419527105422031
14341114 176 18059856138558640089
14461889 52 18410289229453210490
14849402 71 18340208616929975736
14933364 13 18273496753867480888
15183329 4 15502382214032521215
15352257 5 18342176639679855439
15716309 27 18343019978357301207
15728490 51 18411418448757634926
17093844 174 18259983748443291537
17780758 139 18343585127977569385
1813 80 17604155830976629415
18335252 98 18341897389801814938
18608769 82 18343297098078976778
20281389 69 9943803387666807879
21130935 74 18341897342251570475
21150785 3 18187367644398087010
21267235 1 18261117383591229827
21623969 137 17775288231302223055
21774942 28 12252445727504363927
22149856 69 18341623576645691297
22224240 67 18260544542027263760
22896161 15 18408886247698311859
23081809 10 16298669369706598700
23424782 7 18411422817087644730
23516275 137 17702970048672172055
23522609 53 17972630751493496381
23559900 14 18411973681567688745
24771293 8 18113340816930791980
2838139 119 8790882978429550267
335507 130 18342458170601371894
3383291 50 17968104166076734667
34797466 226 17846505850586682364
3663271 9 18201441337662692011
4073 2 18335145292911366683
4325135 7 18334858325087617990
4340502 62 18343579634466523494
437795 51 17846211202802571106
4461854 278 18201168762360671359
4938544 92 18338516323402414245
5104073 3 18198897024753708458
5381727 24 18261108574903527682
5385378 56 12895082794532707693
54076057 127 17632578241537232918
57724786 102 14045157719454142138
59682541 35 18334011735631359408
5969126 39 16660635246475323005
59755656 520 13039182607179577045
6394761 36 11095889272094772136
9831232 110 18126572211163605406

> <PUBCHEM_SHAPE_MULTIPOLES>
493.32
22.68
2.19
0.94
0.35
0.59
-0.01
3.98
3.38
0.58
-0.35
-0.44
-0.22
0.31

> <PUBCHEM_SHAPE_SELFOVERLAP>
1082.542

> <PUBCHEM_SHAPE_VOLUME>
270.2

> <PUBCHEM_COORDINATE_TYPE>
2
5
10

$$$$
57446057
  -OEChem-05102415113D

 52 55  0     1  0  0  0  0  0999 V2000
   -1.3457   -3.6853    0.9330 O   0  0  0  0  0  0  0  0  0  0  0  0
   -2.4936    1.7983   -0.0326 N   0  0  2  0  0  0  0  0  0  0  0  0
    1.0592    2.7387    0.6627 N   0  0  0  0  0  0  0  0  0  0  0  0
    4.7280   -1.1369   -0.5754 N   0  0  0  0  0  0  0  0  0  0  0  0
    4.1243   -1.8636   -1.5305 N   0  0  0  0  0  0  0  0  0  0  0  0
   -0.2203    2.7840   -0.0144 C   0  0  2  0  0  0  0  0  0  0  0  0
   -0.8154    4.1875    0.1057 C   0  0  0  0  0  0  0  0  0  0  0  0
   -1.1635    1.7357    0.5906 C   0  0  0  0  0  0  0  0  0  0  0  0
   -2.2276    4.2181   -0.4684 C   0  0  0  0  0  0  0  0  0  0  0  0
   -3.1015    3.1240    0.1460 C   0  0  0  0  0  0  0  0  0  0  0  0
   -3.3648    0.7582    0.5144 C   0  0  0  0  0  0  0  0  0  0  0  0
   -3.0432   -0.5985   -0.0537 C   0  0  0  0  0  0  0  0  0  0  0  0
    2.0302    1.7893    0.4000 C   0  0  0  0  0  0  0  0  0  0  0  0
    1.7877    0.8077   -0.5692 C   0  0  0  0  0  0  0  0  0  0  0  0
    3.2362    1.8222    1.1025 C   0  0  0  0  0  0  0  0  0  0  0  0
   -2.3356   -1.5251    0.7120 C   0  0  0  0  0  0  0  0  0  0  0  0
   -3.4521   -0.9285   -1.3459 C   0  0  0  0  0  0  0  0  0  0  0  0
    2.7865   -0.1475   -0.8215 C   0  0  0  0  0  0  0  0  0  0  0  0
    3.9782   -0.0917   -0.1075 C   0  0  0  0  0  0  0  0  0  0  0  0
    4.2401    0.8783    0.8626 C   0  0  0  0  0  0  0  0  0  0  0  0
   -2.0370   -2.7819    0.1857 C   0  0  0  0  0  0  0  0  0  0  0  0
   -3.1533   -2.1853   -1.8723 C   0  0  0  0  0  0  0  0  0  0  0  0
   -2.4460   -3.1121   -1.1065 C   0  0  0  0  0  0  0  0  0  0  0  0
    2.9433   -1.2587   -1.6775 C   0  0  0  0  0  0  0  0  0  0  0  0
   -0.4198   -3.1660    1.8866 C   0  0  0  0  0  0  0  0  0  0  0  0
    0.7057   -4.1610    2.0737 C   0  0  0  0  0  0  0  0  0  0  0  0
   -0.0970    2.6044   -1.0906 H   0  0  0  0  0  0  0  0  0  0  0  0
   -0.1832    4.9168   -0.4151 H   0  0  0  0  0  0  0  0  0  0  0  0
   -0.8470    4.4976    1.1586 H   0  0  0  0  0  0  0  0  0  0  0  0
   -0.7316    0.7406    0.4556 H   0  0  0  0  0  0  0  0  0  0  0  0
   -1.2403    1.8912    1.6766 H   0  0  0  0  0  0  0  0  0  0  0  0
   -2.6796    5.1993   -0.2843 H   0  0  0  0  0  0  0  0  0  0  0  0
   -2.1831    4.0860   -1.5569 H   0  0  0  0  0  0  0  0  0  0  0  0
   -4.0793    3.1567   -0.3499 H   0  0  0  0  0  0  0  0  0  0  0  0
   -3.2675    3.3370    1.2102 H   0  0  0  0  0  0  0  0  0  0  0  0
   -4.4130    0.9630    0.2542 H   0  0  0  0  0  0  0  0  0  0  0  0
   -3.3409    0.7433    1.6126 H   0  0  0  0  0  0  0  0  0  0  0  0
    1.2286    3.3902    1.4214 H   0  0  0  0  0  0  0  0  0  0  0  0
    0.8751    0.7407   -1.1481 H   0  0  0  0  0  0  0  0  0  0  0  0
    3.4133    2.5898    1.8533 H   0  0  0  0  0  0  0  0  0  0  0  0
   -2.0539   -1.2514    1.7250 H   0  0  0  0  0  0  0  0  0  0  0  0
   -4.0036   -0.2151   -1.9525 H   0  0  0  0  0  0  0  0  0  0  0  0
    5.1774    0.9022    1.4072 H   0  0  0  0  0  0  0  0  0  0  0  0
   -3.4712   -2.4422   -2.8785 H   0  0  0  0  0  0  0  0  0  0  0  0
   -2.2157   -4.0893   -1.5220 H   0  0  0  0  0  0  0  0  0  0  0  0
    2.2441   -1.6519   -2.4020 H   0  0  0  0  0  0  0  0  0  0  0  0
    5.6589   -1.4087   -0.2850 H   0  0  0  0  0  0  0  0  0  0  0  0
    0.0288   -2.2231    1.5486 H   0  0  0  0  0  0  0  0  0  0  0  0
   -0.9357   -3.0067    2.8398 H   0  0  0  0  0  0  0  0  0  0  0  0
    0.3146   -5.1271    2.4094 H   0  0  0  0  0  0  0  0  0  0  0  0
    1.2238   -4.3396    1.1255 H   0  0  0  0  0  0  0  0  0  0  0  0
    1.4302   -3.7991    2.8086 H   0  0  0  0  0  0  0  0  0  0  0  0
  1 21  1  0  0  0  0
  1 25  1  0  0  0  0
  2  8  1  0  0  0  0
  2 10  1  0  0  0  0
  2 11  1  0  0  0  0
  3  6  1  0  0  0  0
  3 13  1  0  0  0  0
  3 38  1  0  0  0  0
  4  5  1  0  0  0  0
  4 19  1  0  0  0  0
  4 47  1  0  0  0  0
  5 24  2  0  0  0  0
  6  7  1  0  0  0  0
  6  8  1  0  0  0  0
  6 27  1  0  0  0  0
  7  9  1  0  0  0  0
  7 28  1  0  0  0  0
  7 29  1  0  0  0  0
  8 30  1  0  0  0  0
  8 31  1  0  0  0  0
  9 10  1  0  0  0  0
  9 32  1  0  0  0  0
  9 33  1  0  0  0  0
 10 34  1  0  0  0  0
 10 35  1  0  0  0  0
 11 12  1  0  0  0  0
 11 36  1  0  0  0  0
 11 37  1  0  0  0  0
 12 16  2  0  0  0  0
 12 17  1  0  0  0  0
 13 14  2  0  0  0  0
 13 15  1  0  0  0  0
 14 18  1  0  0  0  0
 14 39  1  0  0  0  0
 15 20  2  0  0  0  0
 15 40  1  0  0  0  0
 16 21  1  0  0  0  0
 16 41  1  0  0  0  0
 17 22  2  0  0  0  0
 17 42  1  0  0  0  0
 18 19  2  0  0  0  0
 18 24  1  0  0  0  0
 19 20  1  0  0  0  0
 20 43  1  0  0  0  0
 21 23  2  0  0  0  0
 22 23  1  0  0  0  0
 22 44  1  0  0  0  0
 23 45  1  0  0  0  0
 24 46  1  0  0  0  0
 25 26  1  0  0  0  0
 25 48  1  0  0  0  0
 25 49  1  0  0  0  0
 26 50  1  0  0  0  0
 26 51  1  0  0  0  0
 26 52  1  0  0  0  0
M  END
> <PUBCHEM_COMPOUND_CID>
57446057

> <PUBCHEM_CONFORMER_RMSD>
1

> <PUBCHEM_CONFORMER_DIVERSEORDER>
1
91
247
227
210
78
80
257
62
244
138
159
40
209
21
117
201
216
185
234
99
148
155
256
27
242
153
61
261
178
66
29
113
152
229
51
190
102
160
170
14
37
220
116
143
87
189
56
177
13
81
197
122
194
263
192
130
241
232
196
258
58
222
16
133
126
2
7
124
103
131
32
193
215
31
240
228
71
249
11
107
53
144
225
200
246
36
44
251
235
146
223
182
239
41
202
73
139
250
154
18
147
45
128
175
157
79
219
26
39
43
224
72
231
149
59
82
118
255
186
156
132
9
248
101
67
158
106
65
136
243
233
38
46
127
95
167
17
238
259
135
237
140
226
15
206
108
63
83
162
110
115
125
100
114
230
89
5
188
105
181
164
129
10
97
213
211
165
174
204
198
252
171
64
123
151
33
137
28
85
47
57
96
60
3
262
172
179
134
203
19
90
217
84
119
168
22
212
12
121
218
184
199
163
176
141
4
245
214
69
260
207
93
25
120
76
253
68
54
42
94
221
169
180
254
6
166
205
34
104
112
50
145
150
236
48
52
173
109
55
35
75
161
74
191
8
195
70
208
20
98
86
30
92
24
77
142
187
49
23
88
183
111

> <PUBCHEM_MMFF94_PARTIAL_CHARGES>
32
1 -0.36
10 0.27
11 0.41
12 -0.14
13 0.1
14 -0.15
15 -0.15
16 -0.15
17 -0.15
19 -0.15
2 -0.81
20 -0.15
21 0.08
22 -0.15
23 -0.15
24 0.14
25 0.28
3 -0.87
38 0.4
39 0.15
4 0.3
40 0.15
41 0.15
42 0.15
43 0.15
44 0.15
45 0.15
46 0.15
47 0.27
5 -0.71
6 0.37
8 0.27

> <PUBCHEM_EFFECTIVE_ROTOR_COUNT>
7.2

> <PUBCHEM_PHARMACOPHORE_FEATURES>
10
1 1 acceptor
1 2 cation
1 3 cation
1 3 donor
1 4 donor
1 5 acceptor
5 4 5 18 19 24 rings
6 12 16 17 21 22 23 rings
6 13 14 15 18 19 20 rings
6 2 6 7 8 9 10 rings

> <PUBCHEM_HEAVY_ATOM_COUNT>
26

> <PUBCHEM_ATOM_DEF_STEREO_COUNT>
0

> <PUBCHEM_ATOM_UDEF_STEREO_COUNT>
1

> <PUBCHEM_BOND_DEF_STEREO_COUNT>
0

> <PUBCHEM_BOND_UDEF_STEREO_COUNT>
0

> <PUBCHEM_ISOTOPIC_ATOM_COUNT>
0

> <PUBCHEM_COMPONENT_COUNT>
1

> <PUBCHEM_CACTVS_TAUTO_COUNT>
2

> <PUBCHEM_CONFORMER_ID>
036C8EA900000001

> <PUBCHEM_MMFF94_ENERGY>
67.8729

> <PUBCHEM_FEATURE_SELFOVERLAP>
50.837

> <PUBCHEM_SHAPE_FINGERPRINT>
10006869 2 18193838138169843899
1100329 8 17616251377805323122
11828532 37 16669635019490022931
12156800 1 16480159131448447839
12202916 173 17836054017201198978
12553582 1 18122355832666925221
12788726 201 18409165519631138936
13122387 1 17475806346467852870
1361 2 15674911381057699191
140371 6 17977943806733002105
14114206 34 18334296487066613614
14251757 5 18195554556839677412
14363568 33 16894856812395724152
14659021 117 18410846690295599536
14725015 67 18411132558628754347
17627616 140 17759246193354640078
19930381 70 17621315071296400743
20600515 1 17824808173580203252
3298306 158 17833271913533211445
338550 245 17828490167792489786
3493558 16 10439517878458172705
445580 102 17254841295663747866
469060 322 17125881642990676508
474144 1 17106794829839109514
5265222 85 18049188595500723708
5309563 4 17330561354518326075
57091435 65 17758964718509473899
57527585 103 17899988414964473371
9709674 26 18343020021075008468

> <PUBCHEM_SHAPE_MULTIPOLES>
509.27
7.88
6.27
1.6
6.41
1.27
-0.02
-1.83
-2.23
-4.26
1.83
0.18
-1.91
0.5

> <PUBCHEM_SHAPE_SELFOVERLAP>
1095.998

> <PUBCHEM_SHAPE_VOLUME>
282

> <PUBCHEM_COORDINATE_TYPE>
2
5
10

$$$$
57446058
  -OEChem-05102415113D

 48 51  0     1  0  0  0  0  0999 V2000
   -2.4512    1.5516   -0.1048 N   0  0  2  0  0  0  0  0  0  0  0  0
    1.1194    2.5087    0.4648 N   0  0  0  0  0  0  0  0  0  0  0  0
    4.7063   -1.5829   -0.1723 N   0  0  0  0  0  0  0  0  0  0  0  0
    4.0893   -2.4288   -1.0140 N   0  0  0  0  0  0  0  0  0  0  0  0
   -0.1571    2.4813   -0.2187 C   0  0  2  0  0  0  0  0  0  0  0  0
   -0.7220    3.8994   -0.3087 C   0  0  0  0  0  0  0  0  0  0  0  0
   -1.1242    1.5531    0.5281 C   0  0  0  0  0  0  0  0  0  0  0  0
   -2.1319    3.8753   -0.8888 C   0  0  0  0  0  0  0  0  0  0  0  0
   -3.0307    2.9017   -0.1256 C   0  0  0  0  0  0  0  0  0  0  0  0
   -3.3460    0.6215    0.5838 C   0  0  0  0  0  0  0  0  0  0  0  0
   -3.0525   -0.8102    0.2224 C   0  0  0  0  0  0  0  0  0  0  0  0
    2.0703    1.5108    0.3492 C   0  0  0  0  0  0  0  0  0  0  0  0
    1.8088    0.4031   -0.4671 C   0  0  0  0  0  0  0  0  0  0  0  0
   -2.3681   -1.6302    1.1196 C   0  0  0  0  0  0  0  0  0  0  0  0
    3.2750    1.6209    1.0460 C   0  0  0  0  0  0  0  0  0  0  0  0
   -3.4656   -1.3171   -1.0099 C   0  0  0  0  0  0  0  0  0  0  0  0
    2.7874   -0.5995   -0.5713 C   0  0  0  0  0  0  0  0  0  0  0  0
   -2.0967   -2.9568    0.7846 C   0  0  0  0  0  0  0  0  0  0  0  0
    3.9783   -0.4648    0.1334 C   0  0  0  0  0  0  0  0  0  0  0  0
    4.2589    0.6311    0.9523 C   0  0  0  0  0  0  0  0  0  0  0  0
   -3.1945   -2.6438   -1.3447 C   0  0  0  0  0  0  0  0  0  0  0  0
   -2.5100   -3.4636   -0.4476 C   0  0  0  0  0  0  0  0  0  0  0  0
    2.9220   -1.8272   -1.2545 C   0  0  0  0  0  0  0  0  0  0  0  0
   -1.3651   -3.8335    1.7439 C   0  0  0  0  0  0  0  0  0  0  0  0
   -0.0353    2.1434   -1.2563 H   0  0  0  0  0  0  0  0  0  0  0  0
   -0.7493    4.3610    0.6873 H   0  0  0  0  0  0  0  0  0  0  0  0
   -0.0731    4.5310   -0.9272 H   0  0  0  0  0  0  0  0  0  0  0  0
   -0.7138    0.5401    0.5424 H   0  0  0  0  0  0  0  0  0  0  0  0
   -1.2001    1.8675    1.5792 H   0  0  0  0  0  0  0  0  0  0  0  0
   -2.5630    4.8822   -0.8529 H   0  0  0  0  0  0  0  0  0  0  0  0
   -2.0878    3.5842   -1.9460 H   0  0  0  0  0  0  0  0  0  0  0  0
   -3.1945    3.2718    0.8951 H   0  0  0  0  0  0  0  0  0  0  0  0
   -4.0065    2.8819   -0.6263 H   0  0  0  0  0  0  0  0  0  0  0  0
   -4.3891    0.8082    0.2916 H   0  0  0  0  0  0  0  0  0  0  0  0
   -3.3238    0.7661    1.6727 H   0  0  0  0  0  0  0  0  0  0  0  0
    1.3012    3.2607    1.1207 H   0  0  0  0  0  0  0  0  0  0  0  0
    0.8964    0.2713   -1.0350 H   0  0  0  0  0  0  0  0  0  0  0  0
   -2.0437   -1.2365    2.0800 H   0  0  0  0  0  0  0  0  0  0  0  0
    3.4670    2.4864    1.6771 H   0  0  0  0  0  0  0  0  0  0  0  0
   -3.9994   -0.6882   -1.7176 H   0  0  0  0  0  0  0  0  0  0  0  0
    5.1952    0.7148    1.4927 H   0  0  0  0  0  0  0  0  0  0  0  0
   -3.5157   -3.0381   -2.3043 H   0  0  0  0  0  0  0  0  0  0  0  0
   -2.3030   -4.4948   -0.7213 H   0  0  0  0  0  0  0  0  0  0  0  0
    2.2163   -2.3075   -1.9174 H   0  0  0  0  0  0  0  0  0  0  0  0
    5.6306   -1.8287    0.1597 H   0  0  0  0  0  0  0  0  0  0  0  0
   -0.2850   -3.7212    1.6059 H   0  0  0  0  0  0  0  0  0  0  0  0
   -1.6164   -3.5792    2.7792 H   0  0  0  0  0  0  0  0  0  0  0  0
   -1.6282   -4.8869    1.6000 H   0  0  0  0  0  0  0  0  0  0  0  0
  1  7  1  0  0  0  0
  1  9  1  0  0  0  0
  1 10  1  0  0  0  0
  2  5  1  0  0  0  0
  2 12  1  0  0  0  0
  2 36  1  0  0  0  0
  3  4  1  0  0  0  0
  3 19  1  0  0  0  0
  3 45  1  0  0  0  0
  4 23  2  0  0  0  0
  5  6  1  0  0  0  0
  5  7  1  0  0  0  0
  5 25  1  0  0  0  0
  6  8  1  0  0  0  0
  6 26  1  0  0  0  0
  6 27  1  0  0  0  0
  7 28  1  0  0  0  0
  7 29  1  0  0  0  0
  8  9  1  0  0  0  0
  8 30  1  0  0  0  0
  8 31  1  0  0  0  0
  9 32  1  0  0  0  0
  9 33  1  0  0  0  0
 10 11  1  0  0  0  0
 10 34  1  0  0  0  0
 10 35  1  0  0  0  0
 11 14  1  0  0  0  0
 11 16  2  0  0  0  0
 12 13  2  0  0  0  0
 12 15  1  0  0  0  0
 13 17  1  0  0  0  0
 13 37  1  0  0  0  0
 14 18  2  0  0  0  0
 14 38  1  0  0  0  0
 15 20  2  0  0  0  0
 15 39  1  0  0  0  0
 16 21  1  0  0  0  0
 16 40  1  0  0  0  0
 17 19  2  0  0  0  0
 17 23  1  0  0  0  0
 18 22  1  0  0  0  0
 18 24  1  0  0  0  0
 19 20  1  0  0  0  0
 20 41  1  0  0  0  0
 21 22  2  0  0  0  0
 21 42  1  0  0  0  0
 22 43  1  0  0  0  0
 23 44  1  0  0  0  0
 24 46  1  0  0  0  0
 24 47  1  0  0  0  0
 24 48  1  0  0  0  0
M  END
> <PUBCHEM_COMPOUND_CID>
57446058

> <PUBCHEM_CONFORMER_RMSD>
0.8

> <PUBCHEM_CONFORMER_DIVERSEORDER>
1
52
324
215
117
318
59
96
301
225
311
192
262
92
327
326
97
167
3
325
176
203
54
328
337
283
259
126
18
224
108
65
67
307
303
276
107
13
11
157
69
269
253
196
112
118
169
78
285
187
321
128
213
40
234
162
89
170
55
185
135
186
222
209
227
275
219
331
334
29
183
248
208
133
164
242
299
310
254
103
80
66
85
143
116
255
226
15
239
268
48
201
304
319
125
261
121
72
39
132
266
190
88
94
56
82
31
258
87
53
293
172
33
231
290
58
295
277
144
214
250
105
207
115
153
180
44
154
181
189
175
81
93
264
238
216
100
114
329
236
168
17
229
194
156
221
127
336
287
296
104
68
23
232
76
160
282
230
30
249
155
27
12
141
251
35
145
49
163
257
294
98
158
233
36
124
252
5
240
75
24
119
267
34
291
130
86
260
9
4
281
148
315
84
200
223
286
298
197
263
202
77
131
146
244
136
237
333
241
273
174
25
47
113
314
45
74
305
306
317
211
6
217
184
212
134
302
32
42
323
271
297
193
70
138
309
320
204
152
7
220
198
289
99
178
101
110
332
288
300
166
206
279
228
95
150
313
137
51
247
91
270
173
120
62
188
64
71
111
256
199
38
278
43
171
2
61
292
57
83
8
322
191
102
109
26
149
265
63
139
73
245
123
179
205
151
20
316
243
272
177
210
284
246
161
14
46
16
165
308
274
280
28
140
90
50
312
182
159
10
129
147
21
60
235
142
330
37
122
19
335
41
106
218
79
195
22

> <PUBCHEM_MMFF94_PARTIAL_CHARGES>
31
1 -0.81
10 0.41
11 -0.14
12 0.1
13 -0.15
14 -0.15
15 -0.15
16 -0.15
18 -0.14
19 -0.15
2 -0.87
20 -0.15
21 -0.15
22 -0.15
23 0.14
24 0.14
3 0.3
36 0.4
37 0.15
38 0.15
39 0.15
4 -0.71
40 0.15
41 0.15
42 0.15
43 0.15
44 0.15
45 0.27
5 0.37
7 0.27
9 0.27

> <PUBCHEM_EFFECTIVE_ROTOR_COUNT>
5.2

> <PUBCHEM_PHARMACOPHORE_FEATURES>
9
1 1 cation
1 2 cation
1 2 donor
1 3 donor
1 4 acceptor
5 3 4 17 19 23 rings
6 1 5 6 7 8 9 rings
6 11 14 16 18 21 22 rings
6 12 13 15 17 19 20 rings

> <PUBCHEM_HEAVY_ATOM_COUNT>
24

> <PUBCHEM_ATOM_DEF_STEREO_COUNT>
0

> <PUBCHEM_ATOM_UDEF_STEREO_COUNT>
1

> <PUBCHEM_BOND_DEF_STEREO_COUNT>
0

> <PUBCHEM_BOND_UDEF_STEREO_COUNT>
0

> <PUBCHEM_ISOTOPIC_ATOM_COUNT>
0

> <PUBCHEM_COMPONENT_COUNT>
1

> <PUBCHEM_CACTVS_TAUTO_COUNT>
2

> <PUBCHEM_CONFORMER_ID>
036C8EAA00000001

> <PUBCHEM_MMFF94_ENERGY>
58.5295

> <PUBCHEM_FEATURE_SELFOVERLAP>
45.763

> <PUBCHEM_SHAPE_FINGERPRINT>
10764073 3 17970938702963687595
1100329 8 17399512325543892370
11552529 35 17846779645497053921
12156800 1 16262852748614964655
12422481 6 18126315045991154483
12553582 1 18193007134184447117
13122387 1 17474678243237778822
13402501 40 18198629838864068383
1361 2 15744444492150810923
138480 1 16104729515976158085
14251757 5 18193863490776632886
14363568 33 17399821765247313400
14659021 117 18337096934861597482
14725015 67 18338515236163583179
17627616 140 17542226757333623459
17859628 97 18048883987692603393
19141452 34 18343303665369146801
19315092 285 16196478813749364079
19930381 70 17690841585346093159
20775530 9 18268996547248450059
23559900 14 18051401061745409857
3298306 158 17615404762504926989
445580 102 17398676086794799491
469060 322 17339522258399503676
5265222 85 17975439931072576884
5309563 4 17545327835527459947
550186 72 18264767843373752252
613672 6 18121486114558414203
7987 15 17682975640389818475
9709674 26 18412824698597087800

> <PUBCHEM_SHAPE_MULTIPOLES>
473.98
8.42
5.69
1.24
6.8
1.63
0.07
-4.81
-0.47
-4.34
-0.32
-0.2
-0.88
1.4

> <PUBCHEM_SHAPE_SELFOVERLAP>
1028.051

> <PUBCHEM_SHAPE_VOLUME>
259

> <PUBCHEM_COORDINATE_TYPE>
2
5
10

$$$$
57446060
  -OEChem-05102415113D

 46 49  0     1  0  0  0  0  0999 V2000
   -3.1774   -4.6695   -0.7224 I   0  0  0  0  0  0  0  0  0  0  0  0
   -2.0591   -3.0524    1.8853 O   0  0  0  0  0  0  0  0  0  0  0  0
   -1.9088    2.2472   -0.1149 N   0  0  2  0  0  0  0  0  0  0  0  0
    1.7951    2.3986    0.3839 N   0  0  0  0  0  0  0  0  0  0  0  0
    4.3616   -2.4158   -0.1148 N   0  0  0  0  0  0  0  0  0  0  0  0
    3.5558   -3.1329   -0.9155 N   0  0  0  0  0  0  0  0  0  0  0  0
    0.5330    2.6325   -0.2869 C   0  0  2  0  0  0  0  0  0  0  0  0
    0.2989    4.1368   -0.4304 C   0  0  0  0  0  0  0  0  0  0  0  0
   -0.6042    1.9747    0.5060 C   0  0  0  0  0  0  0  0  0  0  0  0
   -1.0905    4.4080   -0.9968 C   0  0  0  0  0  0  0  0  0  0  0  0
   -2.1711    3.6911   -0.1864 C   0  0  0  0  0  0  0  0  0  0  0  0
   -2.9769    1.5690    0.6192 C   0  0  0  0  0  0  0  0  0  0  0  0
    2.4958    1.2088    0.3014 C   0  0  0  0  0  0  0  0  0  0  0  0
   -3.0183    0.0952    0.3146 C   0  0  0  0  0  0  0  0  0  0  0  0
    1.9783    0.1578   -0.4662 C   0  0  0  0  0  0  0  0  0  0  0  0
    3.7067    1.0719    0.9826 C   0  0  0  0  0  0  0  0  0  0  0  0
   -2.5188   -0.8227    1.2385 C   0  0  0  0  0  0  0  0  0  0  0  0
   -3.5563   -0.3524   -0.8922 C   0  0  0  0  0  0  0  0  0  0  0  0
    2.7052   -1.0423   -0.5374 C   0  0  0  0  0  0  0  0  0  0  0  0
    3.9082   -1.1518    0.1508 C   0  0  0  0  0  0  0  0  0  0  0  0
    4.4418   -0.1165    0.9214 C   0  0  0  0  0  0  0  0  0  0  0  0
   -2.5575   -2.1880    0.9561 C   0  0  0  0  0  0  0  0  0  0  0  0
   -3.5950   -1.7177   -1.1747 C   0  0  0  0  0  0  0  0  0  0  0  0
    2.5491   -2.2941   -1.1705 C   0  0  0  0  0  0  0  0  0  0  0  0
   -3.0955   -2.6355   -0.2506 C   0  0  0  0  0  0  0  0  0  0  0  0
    0.5576    2.2364   -1.3107 H   0  0  0  0  0  0  0  0  0  0  0  0
    1.0619    4.5823   -1.0800 H   0  0  0  0  0  0  0  0  0  0  0  0
    0.3934    4.6306    0.5459 H   0  0  0  0  0  0  0  0  0  0  0  0
   -0.4311    0.8966    0.5584 H   0  0  0  0  0  0  0  0  0  0  0  0
   -0.5891    2.3381    1.5438 H   0  0  0  0  0  0  0  0  0  0  0  0
   -1.2842    5.4866   -0.9987 H   0  0  0  0  0  0  0  0  0  0  0  0
   -1.1315    4.0742   -2.0414 H   0  0  0  0  0  0  0  0  0  0  0  0
   -3.1351    3.8720   -0.6774 H   0  0  0  0  0  0  0  0  0  0  0  0
   -2.2297    4.1275    0.8195 H   0  0  0  0  0  0  0  0  0  0  0  0
   -3.9567    1.9740    0.3284 H   0  0  0  0  0  0  0  0  0  0  0  0
   -2.9038    1.7466    1.7009 H   0  0  0  0  0  0  0  0  0  0  0  0
    2.1523    3.1150    1.0067 H   0  0  0  0  0  0  0  0  0  0  0  0
    1.0497    0.2128   -1.0204 H   0  0  0  0  0  0  0  0  0  0  0  0
    4.0989    1.8957    1.5758 H   0  0  0  0  0  0  0  0  0  0  0  0
   -2.0997   -0.4714    2.1785 H   0  0  0  0  0  0  0  0  0  0  0  0
   -3.9483    0.3531   -1.6201 H   0  0  0  0  0  0  0  0  0  0  0  0
    5.3824   -0.2247    1.4497 H   0  0  0  0  0  0  0  0  0  0  0  0
   -4.0189   -2.0426   -2.1216 H   0  0  0  0  0  0  0  0  0  0  0  0
    1.7419   -2.6286   -1.8069 H   0  0  0  0  0  0  0  0  0  0  0  0
    5.2129   -2.8500    0.2191 H   0  0  0  0  0  0  0  0  0  0  0  0
   -1.7311   -2.5492    2.6502 H   0  0  0  0  0  0  0  0  0  0  0  0
  1 25  1  0  0  0  0
  2 22  1  0  0  0  0
  2 46  1  0  0  0  0
  3  9  1  0  0  0  0
  3 11  1  0  0  0  0
  3 12  1  0  0  0  0
  4  7  1  0  0  0  0
  4 13  1  0  0  0  0
  4 37  1  0  0  0  0
  5  6  1  0  0  0  0
  5 20  1  0  0  0  0
  5 45  1  0  0  0  0
  6 24  2  0  0  0  0
  7  8  1  0  0  0  0
  7  9  1  0  0  0  0
  7 26  1  0  0  0  0
  8 10  1  0  0  0  0
  8 27  1  0  0  0  0
  8 28  1  0  0  0  0
  9 29  1  0  0  0  0
  9 30  1  0  0  0  0
 10 11  1  0  0  0  0
 10 31  1  0  0  0  0
 10 32  1  0  0  0  0
 11 33  1  0  0  0  0
 11 34  1  0  0  0  0
 12 14  1  0  0  0  0
 12 35  1  0  0  0  0
 12 36  1  0  0  0  0
 13 15  2  0  0  0  0
 13 16  1  0  0  0  0
 14 17  2  0  0  0  0
 14 18  1  0  0  0  0
 15 19  1  0  0  0  0
 15 38  1  0  0  0  0
 16 21  2  0  0  0  0
 16 39  1  0  0  0  0
 17 22  1  0  0  0  0
 17 40  1  0  0  0  0
 18 23  2  0  0  0  0
 18 41  1  0  0  0  0
 19 20  2  0  0  0  0
 19 24  1  0  0  0  0
 20 21  1  0  0  0  0
 21 42  1  0  0  0  0
 22 25  2  0  0  0  0
 23 25  1  0  0  0  0
 23 43  1  0  0  0  0
 24 44  1  0  0  0  0
M  END
> <PUBCHEM_COMPOUND_CID>
57446060

> <PUBCHEM_CONFORMER_RMSD>
0.8

> <PUBCHEM_CONFORMER_DIVERSEORDER>
1
242
61
324
140
96
56
60
189
254
88
304
165
330
365
312
89
25
351
322
125
85
170
377
38
197
177
166
305
240
224
247
318
368
169
319
338
310
284
36
41
285
171
116
339
243
238
22
272
205
187
30
298
106
144
185
362
27
259
123
64
155
373
214
248
147
13
268
354
161
149
153
289
296
151
287
139
303
156
361
210
118
188
291
346
95
34
234
369
199
282
57
258
167
175
143
370
59
334
62
337
276
343
203
244
255
79
87
374
315
137
283
301
326
55
120
309
260
355
226
314
72
135
37
128
229
332
356
201
216
134
290
80
119
313
136
142
211
132
65
349
99
172
52
245
40
204
58
344
267
54
294
331
8
336
207
33
265
117
347
333
302
271
281
7
352
28
297
295
266
97
182
113
193
107
43
63
340
162
213
358
246
359
364
278
275
50
253
73
15
320
159
311
236
357
279
228
366
225
24
173
114
217
194
198
231
360
223
335
158
11
92
83
306
256
4
21
227
126
145
215
328
141
115
280
32
371
233
48
148
39
307
19
325
232
157
363
70
76
261
323
300
102
218
93
10
200
348
264
317
308
252
127
222
257
108
378
26
180
219
174
46
9
345
176
67
91
152
53
262
249
138
250
273
6
131
263
237
130
14
367
121
109
66
350
101
190
274
42
270
269
49
353
181
286
299
251
230
235
35
186
84
163
94
110
2
191
47
71
277
292
208
293
195
5
221
3
196
206
209
112
288
98
124
212
23
12
122
327
31
51
20
111
90
17
329
192
77
103
104
239
133
183
178
74
375
82
29
220
184
146
179
241
154
78
321
81
341
168
69
75
18
160
150
202
372
16
342
68
86
164
44
129
45
376
316
105
100

> <PUBCHEM_MMFF94_PARTIAL_CHARGES>
32
1 -0.08
11 0.27
12 0.41
13 0.1
14 -0.14
15 -0.15
16 -0.15
17 -0.15
18 -0.15
2 -0.53
20 -0.15
21 -0.15
22 0.08
23 -0.15
24 0.14
25 0.08
3 -0.81
37 0.4
38 0.15
39 0.15
4 -0.87
40 0.15
41 0.15
42 0.15
43 0.15
44 0.15
45 0.27
46 0.45
5 0.3
6 -0.71
7 0.37
9 0.27

> <PUBCHEM_EFFECTIVE_ROTOR_COUNT>
5.2

> <PUBCHEM_PHARMACOPHORE_FEATURES>
11
1 1 hydrophobe
1 2 donor
1 3 cation
1 4 cation
1 4 donor
1 5 donor
1 6 acceptor
5 5 6 19 20 24 rings
6 13 15 16 19 20 21 rings
6 14 17 18 22 23 25 rings
6 3 7 8 9 10 11 rings

> <PUBCHEM_HEAVY_ATOM_COUNT>
25

> <PUBCHEM_ATOM_DEF_STEREO_COUNT>
0

> <PUBCHEM_ATOM_UDEF_STEREO_COUNT>
1

> <PUBCHEM_BOND_DEF_STEREO_COUNT>
0

> <PUBCHEM_BOND_UDEF_STEREO_COUNT>
0

> <PUBCHEM_ISOTOPIC_ATOM_COUNT>
0

> <PUBCHEM_COMPONENT_COUNT>
1

> <PUBCHEM_CACTVS_TAUTO_COUNT>
6

> <PUBCHEM_CONFORMER_ID>
036C8EAC00000001

> <PUBCHEM_MMFF94_ENERGY>
60.9502

> <PUBCHEM_FEATURE_SELFOVERLAP>
55.912

> <PUBCHEM_SHAPE_FINGERPRINT>
10764073 3 17970943040880149939
107951 10 16811540833496522289
10940486 97 18046078068847685044
1100329 8 14521157808204570364
11014199 57 18339927133357379983
11552529 35 17989484108694110416
12422481 6 18126033510837578401
12553582 1 18336842986072005541
13122387 1 16826442406918006430
13402501 40 17981892947261240324
1361 2 16681749503403374687
138480 1 15528268729207494757
14251757 5 18050312287741414142
14659021 117 18338220567010104218
14725015 67 18124030122835917239
15927050 60 17259620349383979117
16719943 64 17544481855803550302
19315092 285 16627692937556781451
19930381 70 17978789344117646919
20775530 9 18340771528148569659
21133410 52 17478032222782125054
21344244 181 18122320412604847149
23559900 14 18122613122993963561
3298306 158 17111003742980306997
445580 102 17758965109298880027
469060 322 17554285415145998876
5265222 85 17616560375232894284
5309563 4 17979356687674659083
550186 72 18336263531367335988
56633871 153 18340778117330236251
613672 6 18266723843966292879
9709674 26 18340484470046806792

> <PUBCHEM_SHAPE_MULTIPOLES>
500.63
8.68
6.67
1.21
0.42
2.93
-0.2
-9.33
-0.46
0.3
2.09
0.54
-0.46
0.16

> <PUBCHEM_SHAPE_SELFOVERLAP>
1066.263

> <PUBCHEM_SHAPE_VOLUME>
283.3

> <PUBCHEM_COORDINATE_TYPE>
2
5
10

$$$$
57446061
  -OEChem-05102415113D

 56 60  0     1  0  0  0  0  0999 V2000
    4.9203    0.2798    1.7516 Cl  0  0  0  0  0  0  0  0  0  0  0  0
    0.5627   -3.5355    0.6499 O   0  0  0  0  0  0  0  0  0  0  0  0
   -3.8197    0.0366    0.0535 N   0  0  2  0  0  0  0  0  0  0  0  0
   -1.3288    2.6766    0.9565 N   0  0  0  0  0  0  0  0  0  0  0  0
    3.5182    2.1914   -1.5504 N   0  0  0  0  0  0  0  0  0  0  0  0
    3.2349    1.5225   -2.6804 N   0  0  0  0  0  0  0  0  0  0  0  0
   -2.5267    2.1289    0.3544 C   0  0  2  0  0  0  0  0  0  0  0  0
   -3.7581    2.8214    0.9393 C   0  0  0  0  0  0  0  0  0  0  0  0
   -2.5825    0.6149    0.5980 C   0  0  0  0  0  0  0  0  0  0  0  0
   -5.0337    2.1576    0.4322 C   0  0  0  0  0  0  0  0  0  0  0  0
   -5.0063    0.6471    0.6683 C   0  0  0  0  0  0  0  0  0  0  0  0
   -3.8340   -1.4137    0.2437 C   0  0  0  0  0  0  0  0  0  0  0  0
   -2.6299   -2.0724   -0.3752 C   0  0  0  0  0  0  0  0  0  0  0  0
   -0.0747    2.5901    0.3794 C   0  0  0  0  0  0  0  0  0  0  0  0
    0.0715    1.9428   -0.8540 C   0  0  0  0  0  0  0  0  0  0  0  0
    1.0260    3.1479    1.0324 C   0  0  0  0  0  0  0  0  0  0  0  0
   -1.5789   -2.5049    0.4335 C   0  0  0  0  0  0  0  0  0  0  0  0
   -2.5648   -2.2493   -1.7574 C   0  0  0  0  0  0  0  0  0  0  0  0
    1.3534    1.8656   -1.4236 C   0  0  0  0  0  0  0  0  0  0  0  0
    2.4322    2.4296   -0.7520 C   0  0  0  0  0  0  0  0  0  0  0  0
    2.3083    3.0792    0.4781 C   0  0  0  0  0  0  0  0  0  0  0  0
   -0.4629   -3.1146   -0.1397 C   0  0  0  0  0  0  0  0  0  0  0  0
   -1.4487   -2.8587   -2.3306 C   0  0  0  0  0  0  0  0  0  0  0  0
   -0.3978   -3.2916   -1.5219 C   0  0  0  0  0  0  0  0  0  0  0  0
    1.9169    1.3259   -2.5998 C   0  0  0  0  0  0  0  0  0  0  0  0
    1.5861   -2.6389    0.9084 C   0  0  0  0  0  0  0  0  0  0  0  0
    1.5103   -1.7943    2.0160 C   0  0  0  0  0  0  0  0  0  0  0  0
    2.6929   -2.5806    0.0612 C   0  0  0  0  0  0  0  0  0  0  0  0
    2.5415   -0.8919    2.2768 C   0  0  0  0  0  0  0  0  0  0  0  0
    3.7238   -1.6780    0.3219 C   0  0  0  0  0  0  0  0  0  0  0  0
    3.6482   -0.8337    1.4297 C   0  0  0  0  0  0  0  0  0  0  0  0
   -2.5511    2.3392   -0.7230 H   0  0  0  0  0  0  0  0  0  0  0  0
   -3.7594    3.8860    0.6760 H   0  0  0  0  0  0  0  0  0  0  0  0
   -3.7367    2.7713    2.0361 H   0  0  0  0  0  0  0  0  0  0  0  0
   -1.7018    0.1712    0.1302 H   0  0  0  0  0  0  0  0  0  0  0  0
   -2.5020    0.4083    1.6752 H   0  0  0  0  0  0  0  0  0  0  0  0
   -5.1506    2.3605   -0.6400 H   0  0  0  0  0  0  0  0  0  0  0  0
   -5.9029    2.5950    0.9362 H   0  0  0  0  0  0  0  0  0  0  0  0
   -5.0374    0.4435    1.7469 H   0  0  0  0  0  0  0  0  0  0  0  0
   -5.9147    0.2168    0.2293 H   0  0  0  0  0  0  0  0  0  0  0  0
   -4.7320   -1.8440   -0.2193 H   0  0  0  0  0  0  0  0  0  0  0  0
   -3.8921   -1.6723    1.3101 H   0  0  0  0  0  0  0  0  0  0  0  0
   -1.3949    3.0812    1.8842 H   0  0  0  0  0  0  0  0  0  0  0  0
   -0.7476    1.5019   -1.4080 H   0  0  0  0  0  0  0  0  0  0  0  0
    0.9003    3.6480    1.9907 H   0  0  0  0  0  0  0  0  0  0  0  0
   -1.6273   -2.3732    1.5116 H   0  0  0  0  0  0  0  0  0  0  0  0
   -3.3772   -1.9163   -2.3979 H   0  0  0  0  0  0  0  0  0  0  0  0
    3.1646    3.5109    0.9841 H   0  0  0  0  0  0  0  0  0  0  0  0
   -1.3982   -2.9970   -3.4066 H   0  0  0  0  0  0  0  0  0  0  0  0
    0.4649   -3.7696   -1.9776 H   0  0  0  0  0  0  0  0  0  0  0  0
    1.4200    0.7967   -3.4006 H   0  0  0  0  0  0  0  0  0  0  0  0
    4.4801    2.4581   -1.3814 H   0  0  0  0  0  0  0  0  0  0  0  0
    0.6542   -1.8352    2.6838 H   0  0  0  0  0  0  0  0  0  0  0  0
    2.7629   -3.2375   -0.8013 H   0  0  0  0  0  0  0  0  0  0  0  0
    2.4688   -0.2396    3.1433 H   0  0  0  0  0  0  0  0  0  0  0  0
    4.5800   -1.6432   -0.3468 H   0  0  0  0  0  0  0  0  0  0  0  0
  1 31  1  0  0  0  0
  2 22  1  0  0  0  0
  2 26  1  0  0  0  0
  3  9  1  0  0  0  0
  3 11  1  0  0  0  0
  3 12  1  0  0  0  0
  4  7  1  0  0  0  0
  4 14  1  0  0  0  0
  4 43  1  0  0  0  0
  5  6  1  0  0  0  0
  5 20  1  0  0  0  0
  5 52  1  0  0  0  0
  6 25  2  0  0  0  0
  7  8  1  0  0  0  0
  7  9  1  0  0  0  0
  7 32  1  0  0  0  0
  8 10  1  0  0  0  0
  8 33  1  0  0  0  0
  8 34  1  0  0  0  0
  9 35  1  0  0  0  0
  9 36  1  0  0  0  0
 10 11  1  0  0  0  0
 10 37  1  0  0  0  0
 10 38  1  0  0  0  0
 11 39  1  0  0  0  0
 11 40  1  0  0  0  0
 12 13  1  0  0  0  0
 12 41  1  0  0  0  0
 12 42  1  0  0  0  0
 13 17  2  0  0  0  0
 13 18  1  0  0  0  0
 14 15  2  0  0  0  0
 14 16  1  0  0  0  0
 15 19  1  0  0  0  0
 15 44  1  0  0  0  0
 16 21  2  0  0  0  0
 16 45  1  0  0  0  0
 17 22  1  0  0  0  0
 17 46  1  0  0  0  0
 18 23  2  0  0  0  0
 18 47  1  0  0  0  0
 19 20  2  0  0  0  0
 19 25  1  0  0  0  0
 20 21  1  0  0  0  0
 21 48  1  0  0  0  0
 22 24  2  0  0  0  0
 23 24  1  0  0  0  0
 23 49  1  0  0  0  0
 24 50  1  0  0  0  0
 25 51  1  0  0  0  0
 26 27  2  0  0  0  0
 26 28  1  0  0  0  0
 27 29  1  0  0  0  0
 27 53  1  0  0  0  0
 28 30  2  0  0  0  0
 28 54  1  0  0  0  0
 29 31  2  0  0  0  0
 29 55  1  0  0  0  0
 30 31  1  0  0  0  0
 30 56  1  0  0  0  0
M  END
> <PUBCHEM_COMPOUND_CID>
57446061

> <PUBCHEM_CONFORMER_RMSD>
1.2

> <PUBCHEM_CONFORMER_DIVERSEORDER>
1
25
177
35
222
89
354
259
288
226
302
281
261
312
210
345
206
162
335
62
296
145
330
252
289
260
9
113
2
196
303
291
176
262
128
278
52
49
223
267
74
272
5
136
323
299
271
161
158
148
102
122
20
307
228
94
268
58
83
133
269
184
317
125
64
286
23
11
243
255
337
179
249
195
56
135
248
341
277
86
118
214
167
240
233
192
60
300
242
216
92
100
274
263
340
96
276
239
14
27
280
358
175
182
245
203
126
316
190
218
34
348
338
88
264
155
85
18
19
282
266
141
198
253
191
204
101
171
51
295
315
298
285
331
313
232
236
97
106
104
207
53
181
108
119
355
353
213
221
178
147
166
199
201
319
320
120
82
110
297
332
254
10
154
309
112
165
76
38
174
237
284
71
107
350
279
333
283
123
342
200
103
188
65
63
351
69
292
293
183
194
149
352
57
124
202
220
357
305
173
67
132
127
334
91
80
15
211
160
301
46
273
230
224
356
144
33
193
68
32
257
304
287
238
186
115
4
246
39
185
169
231
318
241
306
109
163
157
151
98
31
37
235
152
130
42
77
327
95
159
36
347
227
41
30
360
153
8
225
3
197
329
117
314
54
244
362
143
215
29
234
114
325
116
343
111
208
75
308
78
138
322
170
7
44
55
50
361
150
134
339
72
219
212
359
129
73
229
168
12
349
250
137
70
258
90
105
66
13
326
139
187
344
311
217
24
146
48
346
321
17
28
294
209
172
180
47
84
164
93
205
131
310
21
142
324
43
121
22
275
189
61
59
270
336
79
156
247
40
290
251
87
26
16
328
265
140
6
256
45
81
99

> <PUBCHEM_MMFF94_PARTIAL_CHARGES>
42
1 -0.18
11 0.27
12 0.41
13 -0.14
14 0.1
15 -0.15
16 -0.15
17 -0.15
18 -0.15
2 -0.17
20 -0.15
21 -0.15
22 0.08
23 -0.15
24 -0.15
25 0.14
26 0.08
27 -0.15
28 -0.15
29 -0.15
3 -0.81
30 -0.15
31 0.18
4 -0.87
43 0.4
44 0.15
45 0.15
46 0.15
47 0.15
48 0.15
49 0.15
5 0.3
50 0.15
51 0.15
52 0.27
53 0.15
54 0.15
55 0.15
56 0.15
6 -0.71
7 0.37
9 0.27

> <PUBCHEM_EFFECTIVE_ROTOR_COUNT>
7.2

> <PUBCHEM_PHARMACOPHORE_FEATURES>
11
1 2 acceptor
1 3 cation
1 4 cation
1 4 donor
1 5 donor
1 6 acceptor
5 5 6 19 20 25 rings
6 13 17 18 22 23 24 rings
6 14 15 16 19 20 21 rings
6 26 27 28 29 30 31 rings
6 3 7 8 9 10 11 rings

> <PUBCHEM_HEAVY_ATOM_COUNT>
31

> <PUBCHEM_ATOM_DEF_STEREO_COUNT>
0

> <PUBCHEM_ATOM_UDEF_STEREO_COUNT>
1

> <PUBCHEM_BOND_DEF_STEREO_COUNT>
0

> <PUBCHEM_BOND_UDEF_STEREO_COUNT>
0

> <PUBCHEM_ISOTOPIC_ATOM_COUNT>
0

> <PUBCHEM_COMPONENT_COUNT>
1

> <PUBCHEM_CACTVS_TAUTO_COUNT>
2

> <PUBCHEM_CONFORMER_ID>
036C8EAD00000001

> <PUBCHEM_MMFF94_ENERGY>
87.4774

> <PUBCHEM_FEATURE_SELFOVERLAP>
55.913

> <PUBCHEM_SHAPE_FINGERPRINT>
10006869 2 18195816391432934243
10165383 225 14233791647949015581
1100329 8 18410014308000201618
11513181 2 17917138408234539390
12156800 1 18272939345001977366
12788726 201 17907869739955139365
13122387 1 18122613972948920058
133893 2 17532070847531464066
14114206 34 17689159328170309157
14840074 17 18187646847595716752
15001296 14 18335435546732236300
15297060 5 18059298651961966386
15840311 113 16334981635501724793
18336668 15 18115289177388890920
21315764 21 17462807129835882687
25019877 29 17200770230520566543
3298306 158 18340498768425737981
338550 245 18335139808169278288
3388396 114 17262418013221938964
445580 8 18337390443999210518
463206 1 18334296504267958320
469060 322 17459173119810791290
474144 1 18260557692457676532
550186 7 16761399190597168760
57091435 65 18338520840800096275
5895379 119 18271245027490447174
6287921 2 17480311071698154963
9982175 49 17969498393917616420

> <PUBCHEM_SHAPE_MULTIPOLES>
614.04
8.34
5.51
2.23
3.64
0.85
-1.15
-2.7
2.65
0.37
-0.69
-2.04
0.11
-2.98

> <PUBCHEM_SHAPE_SELFOVERLAP>
1337.618

> <PUBCHEM_SHAPE_VOLUME>
334.3

> <PUBCHEM_COORDINATE_TYPE>
2
5
10

$$$$
57446062
  -OEChem-05102415113D

 59 63  0     1  0  0  0  0  0999 V2000
    5.4268   -0.2263   -0.9266 F   0  0  0  0  0  0  0  0  0  0  0  0
    5.5127   -2.3609   -0.5217 F   0  0  0  0  0  0  0  0  0  0  0  0
    4.2525   -1.6132   -2.1206 F   0  0  0  0  0  0  0  0  0  0  0  0
    0.6967   -3.1566    1.4263 O   0  0  0  0  0  0  0  0  0  0  0  0
   -4.1954   -0.7085   -0.1212 N   0  0  2  0  0  0  0  0  0  0  0  0
   -2.6672    2.6933    0.1663 N   0  0  0  0  0  0  0  0  0  0  0  0
    2.7278    3.3425   -0.5314 N   0  0  0  0  0  0  0  0  0  0  0  0
    3.0207    4.4351    0.1933 N   0  0  0  0  0  0  0  0  0  0  0  0
   -3.4924    1.6504   -0.4072 C   0  0  2  0  0  0  0  0  0  0  0  0
   -4.9542    2.0989   -0.4161 C   0  0  0  0  0  0  0  0  0  0  0  0
   -3.3220    0.3547    0.3970 C   0  0  0  0  0  0  0  0  0  0  0  0
   -5.8580    0.9599   -0.8752 C   0  0  0  0  0  0  0  0  0  0  0  0
   -5.6085   -0.3106   -0.0615 C   0  0  0  0  0  0  0  0  0  0  0  0
   -3.9825   -1.9521    0.6188 C   0  0  0  0  0  0  0  0  0  0  0  0
   -2.7118   -2.6430    0.2007 C   0  0  0  0  0  0  0  0  0  0  0  0
   -1.3054    2.7980   -0.0526 C   0  0  0  0  0  0  0  0  0  0  0  0
   -0.5910    3.8431    0.5466 C   0  0  0  0  0  0  0  0  0  0  0  0
   -1.5827   -2.5799    1.0172 C   0  0  0  0  0  0  0  0  0  0  0  0
   -0.6627    1.8626   -0.8658 C   0  0  0  0  0  0  0  0  0  0  0  0
   -2.6635   -3.3454   -1.0036 C   0  0  0  0  0  0  0  0  0  0  0  0
    0.7913    3.9320    0.3121 C   0  0  0  0  0  0  0  0  0  0  0  0
    1.4062    2.9872   -0.5020 C   0  0  0  0  0  0  0  0  0  0  0  0
    0.7127    1.9378   -1.1086 C   0  0  0  0  0  0  0  0  0  0  0  0
   -0.4051   -3.2194    0.6297 C   0  0  0  0  0  0  0  0  0  0  0  0
   -1.4858   -3.9846   -1.3912 C   0  0  0  0  0  0  0  0  0  0  0  0
   -0.3567   -3.9218   -0.5745 C   0  0  0  0  0  0  0  0  0  0  0  0
    1.8401    4.7909    0.7049 C   0  0  0  0  0  0  0  0  0  0  0  0
    1.5790   -2.1085    1.2236 C   0  0  0  0  0  0  0  0  0  0  0  0
    2.6360   -2.2512    0.3248 C   0  0  0  0  0  0  0  0  0  0  0  0
    1.4102   -0.9099    1.9171 C   0  0  0  0  0  0  0  0  0  0  0  0
    3.5244   -1.1955    0.1194 C   0  0  0  0  0  0  0  0  0  0  0  0
    2.2984    0.1460    1.7114 C   0  0  0  0  0  0  0  0  0  0  0  0
    3.3555    0.0031    0.8128 C   0  0  0  0  0  0  0  0  0  0  0  0
    4.6539   -1.3482   -0.8421 C   0  0  0  0  0  0  0  0  0  0  0  0
   -3.2279    1.4795   -1.4591 H   0  0  0  0  0  0  0  0  0  0  0  0
   -5.2592    2.4189    0.5891 H   0  0  0  0  0  0  0  0  0  0  0  0
   -5.0837    2.9679   -1.0724 H   0  0  0  0  0  0  0  0  0  0  0  0
   -2.2769    0.0372    0.3534 H   0  0  0  0  0  0  0  0  0  0  0  0
   -3.5391    0.5474    1.4577 H   0  0  0  0  0  0  0  0  0  0  0  0
   -6.9076    1.2601   -0.7795 H   0  0  0  0  0  0  0  0  0  0  0  0
   -5.6795    0.7569   -1.9388 H   0  0  0  0  0  0  0  0  0  0  0  0
   -5.9259   -0.1526    0.9777 H   0  0  0  0  0  0  0  0  0  0  0  0
   -6.2387   -1.1058   -0.4781 H   0  0  0  0  0  0  0  0  0  0  0  0
   -4.8004   -2.6593    0.4204 H   0  0  0  0  0  0  0  0  0  0  0  0
   -4.0034   -1.7882    1.7050 H   0  0  0  0  0  0  0  0  0  0  0  0
   -3.0913    3.3407    0.8218 H   0  0  0  0  0  0  0  0  0  0  0  0
   -1.0886    4.5723    1.1798 H   0  0  0  0  0  0  0  0  0  0  0  0
   -1.6182   -2.0378    1.9589 H   0  0  0  0  0  0  0  0  0  0  0  0
   -1.1821    1.0440   -1.3536 H   0  0  0  0  0  0  0  0  0  0  0  0
   -3.5364   -3.4017   -1.6484 H   0  0  0  0  0  0  0  0  0  0  0  0
    1.2140    1.2130   -1.7405 H   0  0  0  0  0  0  0  0  0  0  0  0
   -1.4482   -4.5322   -2.3284 H   0  0  0  0  0  0  0  0  0  0  0  0
    0.5542   -4.4275   -0.8829 H   0  0  0  0  0  0  0  0  0  0  0  0
    1.7914    5.6616    1.3434 H   0  0  0  0  0  0  0  0  0  0  0  0
    3.4810    2.8809   -1.0258 H   0  0  0  0  0  0  0  0  0  0  0  0
    2.7706   -3.1870   -0.2120 H   0  0  0  0  0  0  0  0  0  0  0  0
    0.5925   -0.7904    2.6223 H   0  0  0  0  0  0  0  0  0  0  0  0
    2.1679    1.0782    2.2533 H   0  0  0  0  0  0  0  0  0  0  0  0
    4.0397    0.8347    0.6708 H   0  0  0  0  0  0  0  0  0  0  0  0
  1 34  1  0  0  0  0
  2 34  1  0  0  0  0
  3 34  1  0  0  0  0
  4 24  1  0  0  0  0
  4 28  1  0  0  0  0
  5 11  1  0  0  0  0
  5 13  1  0  0  0  0
  5 14  1  0  0  0  0
  6  9  1  0  0  0  0
  6 16  1  0  0  0  0
  6 46  1  0  0  0  0
  7  8  1  0  0  0  0
  7 22  1  0  0  0  0
  7 55  1  0  0  0  0
  8 27  2  0  0  0  0
  9 10  1  0  0  0  0
  9 11  1  0  0  0  0
  9 35  1  0  0  0  0
 10 12  1  0  0  0  0
 10 36  1  0  0  0  0
 10 37  1  0  0  0  0
 11 38  1  0  0  0  0
 11 39  1  0  0  0  0
 12 13  1  0  0  0  0
 12 40  1  0  0  0  0
 12 41  1  0  0  0  0
 13 42  1  0  0  0  0
 13 43  1  0  0  0  0
 14 15  1  0  0  0  0
 14 44  1  0  0  0  0
 14 45  1  0  0  0  0
 15 18  2  0  0  0  0
 15 20  1  0  0  0  0
 16 17  2  0  0  0  0
 16 19  1  0  0  0  0
 17 21  1  0  0  0  0
 17 47  1  0  0  0  0
 18 24  1  0  0  0  0
 18 48  1  0  0  0  0
 19 23  2  0  0  0  0
 19 49  1  0  0  0  0
 20 25  2  0  0  0  0
 20 50  1  0  0  0  0
 21 22  2  0  0  0  0
 21 27  1  0  0  0  0
 22 23  1  0  0  0  0
 23 51  1  0  0  0  0
 24 26  2  0  0  0  0
 25 26  1  0  0  0  0
 25 52  1  0  0  0  0
 26 53  1  0  0  0  0
 27 54  1  0  0  0  0
 28 29  1  0  0  0  0
 28 30  2  0  0  0  0
 29 31  2  0  0  0  0
 29 56  1  0  0  0  0
 30 32  1  0  0  0  0
 30 57  1  0  0  0  0
 31 33  1  0  0  0  0
 31 34  1  0  0  0  0
 32 33  2  0  0  0  0
 32 58  1  0  0  0  0
 33 59  1  0  0  0  0
M  END
> <PUBCHEM_COMPOUND_CID>
57446062

> <PUBCHEM_CONFORMER_RMSD>
1.6

> <PUBCHEM_CONFORMER_DIVERSEORDER>
1
19
72
80
5
38
41
76
114
78
69
46
2
119
75
128
89
125
98
106
4
96
92
9
90
24
57
12
53
115
91
52
37
85
113
81
47
50
32
3
94
95
105
130
21
68
88
65
43
93
54
48
36
58
126
111
63
77
129
29
122
30
100
64
10
61
17
86
55
62
102
59
33
42
49
123
67
117
22
99
79
18
45
51
124
108
83
110
8
120
103
13
60
27
34
107
112
56
71
25
104
116
121
127
20
87
70
44
82
15
109
39
73
14
84
101
40
35
28
74
23
7
118
97
26
16
11
66
31
6

> <PUBCHEM_MMFF94_PARTIAL_CHARGES>
45
1 -0.34
11 0.27
13 0.27
14 0.41
15 -0.14
16 0.1
17 -0.15
18 -0.15
19 -0.15
2 -0.34
20 -0.15
22 -0.15
23 -0.15
24 0.08
25 -0.15
26 -0.15
27 0.14
28 0.08
29 -0.15
3 -0.34
30 -0.15
31 -0.14
32 -0.15
33 -0.15
34 1.16
4 -0.17
46 0.4
47 0.15
48 0.15
49 0.15
5 -0.81
50 0.15
51 0.15
52 0.15
53 0.15
54 0.15
55 0.27
56 0.15
57 0.15
58 0.15
59 0.15
6 -0.87
7 0.3
8 -0.71
9 0.37

> <PUBCHEM_EFFECTIVE_ROTOR_COUNT>
8.2

> <PUBCHEM_PHARMACOPHORE_FEATURES>
11
1 4 acceptor
1 5 cation
1 6 cation
1 6 donor
1 7 donor
1 8 acceptor
5 7 8 21 22 27 rings
6 15 18 20 24 25 26 rings
6 16 17 19 21 22 23 rings
6 28 29 30 31 32 33 rings
6 5 9 10 11 12 13 rings

> <PUBCHEM_HEAVY_ATOM_COUNT>
34

> <PUBCHEM_ATOM_DEF_STEREO_COUNT>
0

> <PUBCHEM_ATOM_UDEF_STEREO_COUNT>
1

> <PUBCHEM_BOND_DEF_STEREO_COUNT>
0

> <PUBCHEM_BOND_UDEF_STEREO_COUNT>
0

> <PUBCHEM_ISOTOPIC_ATOM_COUNT>
0

> <PUBCHEM_COMPONENT_COUNT>
1

> <PUBCHEM_CACTVS_TAUTO_COUNT>
2

> <PUBCHEM_CONFORMER_ID>
036C8EAE00000001

> <PUBCHEM_MMFF94_ENERGY>
89.2218

> <PUBCHEM_FEATURE_SELFOVERLAP>
55.913

> <PUBCHEM_SHAPE_FINGERPRINT>
10006869 2 18048019797365582283
10032420 55 17531238405702551641
10429389 16 17697617506299113222
10864689 126 18338514115372083516
1100329 8 18409442609235406049
11513181 2 18054789747781096302
12422481 6 17976799202586334608
13122387 1 18336254666036592587
1361 2 18338505353749400625
13761468 95 17899415281959870894
14114211 80 18127982910256250027
14117953 113 17904747900358353429
14647877 51 18266744756499660720
15001296 14 18189887781479538945
15297060 5 18055639421129335995
15320467 1 18338515244589422227
15721738 15 16964605990108650140
15927050 60 18195526119466058445
15975801 100 16669114456890183718
16112460 7 18341065072500782409
17977149 70 18269559338699888582
19319366 153 17749671770891291906
19611394 137 18187664487691755187
20567600 299 17836930371049506736
20642791 35 18336262426752430433
20764821 26 18337099172170215270
21133410 38 17983020243629027363
21796203 349 18046937933478618001
22113638 7 18337656547725604323
23559900 14 18411693288458707737
338550 245 18043809998896502757
463206 1 18336272266554628305
5171179 24 18125445452341793884
5776283 40 18191600833396158916
6433294 58 18266176317330323193
9896288 288 17694213371344495248

> <PUBCHEM_SHAPE_MULTIPOLES>
652.09
10.1
7.25
1.36
3.06
3.43
-0.03
-0.97
2.67
-1.99
0.27
-0.92
-0.8
0.55

> <PUBCHEM_SHAPE_SELFOVERLAP>
1432.558

> <PUBCHEM_SHAPE_VOLUME>
353.5

> <PUBCHEM_COORDINATE_TYPE>
2
5
10

$$$$
57446063
  -OEChem-05102415113D

 45 48  0     1  0  0  0  0  0999 V2000
   -4.3263   -0.2586   -2.0194 Br  0  0  0  0  0  0  0  0  0  0  0  0
   -0.8921   -3.9978    2.1591 Br  0  0  0  0  0  0  0  0  0  0  0  0
   -2.2814    1.5822    0.0971 N   0  0  2  0  0  0  0  0  0  0  0  0
    1.3173    2.5157    0.5076 N   0  0  0  0  0  0  0  0  0  0  0  0
    4.8492   -1.5807   -0.3636 N   0  0  0  0  0  0  0  0  0  0  0  0
    4.1881   -2.4111   -1.1871 N   0  0  0  0  0  0  0  0  0  0  0  0
    0.0091    2.5039   -0.1137 C   0  0  2  0  0  0  0  0  0  0  0  0
   -0.5526    3.9256   -0.1550 C   0  0  0  0  0  0  0  0  0  0  0  0
   -0.9253    1.5685    0.6650 C   0  0  0  0  0  0  0  0  0  0  0  0
   -1.9889    3.9162   -0.6664 C   0  0  0  0  0  0  0  0  0  0  0  0
   -2.8546    2.9348    0.1246 C   0  0  0  0  0  0  0  0  0  0  0  0
   -3.1463    0.6455    0.8141 C   0  0  0  0  0  0  0  0  0  0  0  0
    2.2566    1.5157    0.3312 C   0  0  0  0  0  0  0  0  0  0  0  0
   -2.8777   -0.7819    0.4174 C   0  0  0  0  0  0  0  0  0  0  0  0
    1.9506    0.4216   -0.4881 C   0  0  0  0  0  0  0  0  0  0  0  0
    3.4941    1.6101    0.9704 C   0  0  0  0  0  0  0  0  0  0  0  0
   -3.3337   -1.3086   -0.7911 C   0  0  0  0  0  0  0  0  0  0  0  0
   -2.1504   -1.5834    1.2972 C   0  0  0  0  0  0  0  0  0  0  0  0
    2.9180   -0.5834   -0.6545 C   0  0  0  0  0  0  0  0  0  0  0  0
    4.1422   -0.4644   -0.0063 C   0  0  0  0  0  0  0  0  0  0  0  0
    4.4674    0.6178    0.8144 C   0  0  0  0  0  0  0  0  0  0  0  0
   -1.8790   -2.9116    0.9687 C   0  0  0  0  0  0  0  0  0  0  0  0
   -3.0626   -2.6369   -1.1197 C   0  0  0  0  0  0  0  0  0  0  0  0
    3.0135   -1.8010   -1.3618 C   0  0  0  0  0  0  0  0  0  0  0  0
   -2.3352   -3.4383   -0.2399 C   0  0  0  0  0  0  0  0  0  0  0  0
    0.0789    2.1813   -1.1610 H   0  0  0  0  0  0  0  0  0  0  0  0
    0.0689    4.5638   -0.7946 H   0  0  0  0  0  0  0  0  0  0  0  0
   -0.5295    4.3721    0.8480 H   0  0  0  0  0  0  0  0  0  0  0  0
   -0.5188    0.5541    0.6431 H   0  0  0  0  0  0  0  0  0  0  0  0
   -0.9481    1.8670    1.7232 H   0  0  0  0  0  0  0  0  0  0  0  0
   -2.4128    4.9242   -0.5947 H   0  0  0  0  0  0  0  0  0  0  0  0
   -1.9975    3.6408   -1.7288 H   0  0  0  0  0  0  0  0  0  0  0  0
   -3.8537    2.9274   -0.3278 H   0  0  0  0  0  0  0  0  0  0  0  0
   -2.9666    3.2900    1.1575 H   0  0  0  0  0  0  0  0  0  0  0  0
   -4.2074    0.8545    0.6229 H   0  0  0  0  0  0  0  0  0  0  0  0
   -3.0466    0.7719    1.9018 H   0  0  0  0  0  0  0  0  0  0  0  0
    1.5342    3.2568    1.1652 H   0  0  0  0  0  0  0  0  0  0  0  0
    1.0112    0.3023   -1.0132 H   0  0  0  0  0  0  0  0  0  0  0  0
    3.7205    2.4651    1.6045 H   0  0  0  0  0  0  0  0  0  0  0  0
   -1.7938   -1.1741    2.2398 H   0  0  0  0  0  0  0  0  0  0  0  0
    5.4291    0.6893    1.3101 H   0  0  0  0  0  0  0  0  0  0  0  0
   -3.4096   -3.0647   -2.0568 H   0  0  0  0  0  0  0  0  0  0  0  0
    2.2742   -2.2683   -1.9970 H   0  0  0  0  0  0  0  0  0  0  0  0
   -2.1320   -4.4711   -0.5110 H   0  0  0  0  0  0  0  0  0  0  0  0
    5.7872   -1.8353   -0.0804 H   0  0  0  0  0  0  0  0  0  0  0  0
  1 17  1  0  0  0  0
  2 22  1  0  0  0  0
  3  9  1  0  0  0  0
  3 11  1  0  0  0  0
  3 12  1  0  0  0  0
  4  7  1  0  0  0  0
  4 13  1  0  0  0  0
  4 37  1  0  0  0  0
  5  6  1  0  0  0  0
  5 20  1  0  0  0  0
  5 45  1  0  0  0  0
  6 24  2  0  0  0  0
  7  8  1  0  0  0  0
  7  9  1  0  0  0  0
  7 26  1  0  0  0  0
  8 10  1  0  0  0  0
  8 27  1  0  0  0  0
  8 28  1  0  0  0  0
  9 29  1  0  0  0  0
  9 30  1  0  0  0  0
 10 11  1  0  0  0  0
 10 31  1  0  0  0  0
 10 32  1  0  0  0  0
 11 33  1  0  0  0  0
 11 34  1  0  0  0  0
 12 14  1  0  0  0  0
 12 35  1  0  0  0  0
 12 36  1  0  0  0  0
 13 15  2  0  0  0  0
 13 16  1  0  0  0  0
 14 17  2  0  0  0  0
 14 18  1  0  0  0  0
 15 19  1  0  0  0  0
 15 38  1  0  0  0  0
 16 21  2  0  0  0  0
 16 39  1  0  0  0  0
 17 23  1  0  0  0  0
 18 22  2  0  0  0  0
 18 40  1  0  0  0  0
 19 20  2  0  0  0  0
 19 24  1  0  0  0  0
 20 21  1  0  0  0  0
 21 41  1  0  0  0  0
 22 25  1  0  0  0  0
 23 25  2  0  0  0  0
 23 42  1  0  0  0  0
 24 43  1  0  0  0  0
 25 44  1  0  0  0  0
M  END
> <PUBCHEM_COMPOUND_CID>
57446063

> <PUBCHEM_CONFORMER_RMSD>
0.8

> <PUBCHEM_CONFORMER_DIVERSEORDER>
1
194
288
95
295
250
110
231
251
16
164
209
173
206
261
66
89
14
179
96
185
152
131
263
293
200
78
51
278
191
144
281
256
205
279
305
94
69
170
168
304
125
178
223
271
84
238
59
285
252
195
175
57
277
229
81
41
74
303
236
246
198
163
257
287
242
128
8
7
150
63
211
217
222
132
129
190
255
126
180
269
103
204
188
161
239
215
220
208
284
72
40
254
275
138
267
143
106
77
203
12
156
2
302
127
262
112
235
207
268
189
199
286
134
301
118
192
214
30
121
87
299
35
176
213
39
247
272
71
22
24
228
105
104
47
141
146
93
149
296
135
44
244
289
79
83
80
28
174
167
61
34
10
291
99
114
20
300
290
23
88
224
45
64
62
282
186
165
36
259
48
264
116
148
169
219
76
31
27
172
280
276
253
216
50
201
124
75
102
43
151
298
140
120
67
109
101
111
123
145
260
237
53
54
11
232
158
33
181
202
210
226
171
46
97
274
240
166
241
245
137
82
233
266
4
122
249
248
154
113
193
32
197
160
26
38
85
119
292
107
90
157
265
283
187
100
218
49
183
37
212
60
13
73
108
19
196
115
15
92
91
182
25
29
56
297
117
273
136
21
221
243
70
258
227
9
58
230
184
162
142
234
6
177
225
270
3
98
55
306
294
18
155
5
68
52
17
147
86
42
153
130
159
133
65
139

> <PUBCHEM_MMFF94_PARTIAL_CHARGES>
31
1 -0.11
11 0.27
12 0.41
13 0.1
14 -0.14
15 -0.15
16 -0.15
17 0.11
18 -0.15
2 -0.11
20 -0.15
21 -0.15
22 0.11
23 -0.15
24 0.14
25 -0.15
3 -0.81
37 0.4
38 0.15
39 0.15
4 -0.87
40 0.15
41 0.15
42 0.15
43 0.15
44 0.15
45 0.27
5 0.3
6 -0.71
7 0.37
9 0.27

> <PUBCHEM_EFFECTIVE_ROTOR_COUNT>
5.2

> <PUBCHEM_PHARMACOPHORE_FEATURES>
11
1 1 hydrophobe
1 2 hydrophobe
1 3 cation
1 4 cation
1 4 donor
1 5 donor
1 6 acceptor
5 5 6 19 20 24 rings
6 13 15 16 19 20 21 rings
6 14 17 18 22 23 25 rings
6 3 7 8 9 10 11 rings

> <PUBCHEM_HEAVY_ATOM_COUNT>
25

> <PUBCHEM_ATOM_DEF_STEREO_COUNT>
0

> <PUBCHEM_ATOM_UDEF_STEREO_COUNT>
1

> <PUBCHEM_BOND_DEF_STEREO_COUNT>
0

> <PUBCHEM_BOND_UDEF_STEREO_COUNT>
0

> <PUBCHEM_ISOTOPIC_ATOM_COUNT>
0

> <PUBCHEM_COMPONENT_COUNT>
1

> <PUBCHEM_CACTVS_TAUTO_COUNT>
2

> <PUBCHEM_CONFORMER_ID>
036C8EAF00000001

> <PUBCHEM_MMFF94_ENERGY>
60.0459

> <PUBCHEM_FEATURE_SELFOVERLAP>
55.912

> <PUBCHEM_SHAPE_FINGERPRINT>
10764073 3 18044124395894764459
107951 10 17244163530583640977
1100329 8 17399794900079638562
11135926 11 18049725423104607541
11552529 35 17775287187614301960
12156800 1 16334912533049186327
12202916 173 17978202157494976026
12422481 6 18128284262647373859
12553582 1 18193853745147574089
12788726 201 18336538348310079760
13122387 1 17330566340912079198
13402501 40 18198632037987498692
1361 2 15817899561299216935
140371 6 18193552496400519153
14251757 5 18193866789374780734
14363568 33 17183087154192900888
14659021 117 18409719669354800434
15927050 60 17764306138114734629
17627616 140 17757828923145875267
19315092 285 16197603588284967911
19930381 70 17763744695172503767
20600515 1 17678440073272961948
21987440 362 15877780678160754469
23559900 14 18196924685414132568
23572383 38 18195227035144208274
3027735 51 18265607685393105887
3298306 158 17615409160493467677
445580 102 17471016246725726578
469060 322 17340367765714258676
508706 21 18340488876641223526
5265222 85 17903103065434202892
5309563 4 17473555019190565883
57527585 103 17898020267807845291
613672 6 18194389215810577979
9709674 26 18341892983070449616

> <PUBCHEM_SHAPE_MULTIPOLES>
506.45
8.86
5.62
1.55
7.4
1.12
-0.06
-3.76
-2.54
-3.2
1.12
-0.81
-1.35
1.57

> <PUBCHEM_SHAPE_SELFOVERLAP>
1070.23

> <PUBCHEM_SHAPE_VOLUME>
291.3

> <PUBCHEM_COORDINATE_TYPE>
2
5
10

$$$$
59799789
  -OEChem-05102415113D

 45 48  0     1  0  0  0  0  0999 V2000
    3.4613    2.3975    1.9905 F   0  0  0  0  0  0  0  0  0  0  0  0
    3.0540    4.0404   -0.1569 F   0  0  0  0  0  0  0  0  0  0  0  0
    1.8667   -2.1713    0.0286 N   0  0  1  0  0  0  0  0  0  0  0  0
   -1.8525   -2.3786   -0.2548 N   0  0  0  0  0  0  0  0  0  0  0  0
   -4.4242    2.4538   -0.0196 N   0  0  0  0  0  0  0  0  0  0  0  0
   -3.5825    3.2370    0.6753 N   0  0  0  0  0  0  0  0  0  0  0  0
   -0.5564   -2.5536    0.3648 C   0  0  1  0  0  0  0  0  0  0  0  0
   -0.3036   -4.0392    0.6211 C   0  0  0  0  0  0  0  0  0  0  0  0
    0.5281   -1.9579   -0.5410 C   0  0  0  0  0  0  0  0  0  0  0  0
    1.1165   -4.2545    1.1329 C   0  0  0  0  0  0  0  0  0  0  0  0
    2.1455   -3.6030    0.2076 C   0  0  0  0  0  0  0  0  0  0  0  0
    2.8876   -1.5532   -0.8172 C   0  0  0  0  0  0  0  0  0  0  0  0
   -2.5568   -1.1876   -0.2336 C   0  0  0  0  0  0  0  0  0  0  0  0
    2.9320   -0.0585   -0.6410 C   0  0  0  0  0  0  0  0  0  0  0  0
   -2.0074   -0.0753    0.4164 C   0  0  0  0  0  0  0  0  0  0  0  0
   -3.8026   -1.1109   -0.8590 C   0  0  0  0  0  0  0  0  0  0  0  0
    3.1807    0.4879    0.6180 C   0  0  0  0  0  0  0  0  0  0  0  0
    2.7246    0.7795   -1.7366 C   0  0  0  0  0  0  0  0  0  0  0  0
   -2.7380    1.1246    0.4266 C   0  0  0  0  0  0  0  0  0  0  0  0
   -3.9762    1.1735   -0.2039 C   0  0  0  0  0  0  0  0  0  0  0  0
   -4.5419    0.0765   -0.8574 C   0  0  0  0  0  0  0  0  0  0  0  0
    3.2223    1.8726    0.7814 C   0  0  0  0  0  0  0  0  0  0  0  0
    2.7659    2.1642   -1.5730 C   0  0  0  0  0  0  0  0  0  0  0  0
   -2.5579    2.4249    0.9450 C   0  0  0  0  0  0  0  0  0  0  0  0
    3.0149    2.7108   -0.3140 C   0  0  0  0  0  0  0  0  0  0  0  0
   -0.5294   -2.0730    1.3517 H   0  0  0  0  0  0  0  0  0  0  0  0
   -0.4454   -4.6139   -0.3038 H   0  0  0  0  0  0  0  0  0  0  0  0
   -1.0271   -4.4312    1.3460 H   0  0  0  0  0  0  0  0  0  0  0  0
    0.4612   -2.4094   -1.5417 H   0  0  0  0  0  0  0  0  0  0  0  0
    0.3496   -0.8872   -0.6797 H   0  0  0  0  0  0  0  0  0  0  0  0
    1.2100   -3.8333    2.1419 H   0  0  0  0  0  0  0  0  0  0  0  0
    1.3205   -5.3281    1.2150 H   0  0  0  0  0  0  0  0  0  0  0  0
    2.1543   -4.1227   -0.7596 H   0  0  0  0  0  0  0  0  0  0  0  0
    3.1361   -3.7370    0.6592 H   0  0  0  0  0  0  0  0  0  0  0  0
    2.7548   -1.8295   -1.8718 H   0  0  0  0  0  0  0  0  0  0  0  0
    3.8863   -1.9182   -0.5390 H   0  0  0  0  0  0  0  0  0  0  0  0
   -2.2376   -3.1448   -0.7965 H   0  0  0  0  0  0  0  0  0  0  0  0
   -1.0505   -0.0819    0.9232 H   0  0  0  0  0  0  0  0  0  0  0  0
   -4.2194   -1.9819   -1.3608 H   0  0  0  0  0  0  0  0  0  0  0  0
    3.3493   -0.1518    1.4802 H   0  0  0  0  0  0  0  0  0  0  0  0
    2.5283    0.3679   -2.7229 H   0  0  0  0  0  0  0  0  0  0  0  0
   -5.5096    0.1380   -1.3425 H   0  0  0  0  0  0  0  0  0  0  0  0
    2.6038    2.8171   -2.4256 H   0  0  0  0  0  0  0  0  0  0  0  0
   -1.7209    2.8131    1.5082 H   0  0  0  0  0  0  0  0  0  0  0  0
   -5.2950    2.8566   -0.3427 H   0  0  0  0  0  0  0  0  0  0  0  0
  1 22  1  0  0  0  0
  2 25  1  0  0  0  0
  3  9  1  0  0  0  0
  3 11  1  0  0  0  0
  3 12  1  0  0  0  0
  4  7  1  0  0  0  0
  4 13  1  0  0  0  0
  4 37  1  0  0  0  0
  5  6  1  0  0  0  0
  5 20  1  0  0  0  0
  5 45  1  0  0  0  0
  6 24  2  0  0  0  0
  7  8  1  0  0  0  0
  7  9  1  0  0  0  0
  7 26  1  0  0  0  0
  8 10  1  0  0  0  0
  8 27  1  0  0  0  0
  8 28  1  0  0  0  0
  9 29  1  0  0  0  0
  9 30  1  0  0  0  0
 10 11  1  0  0  0  0
 10 31  1  0  0  0  0
 10 32  1  0  0  0  0
 11 33  1  0  0  0  0
 11 34  1  0  0  0  0
 12 14  1  0  0  0  0
 12 35  1  0  0  0  0
 12 36  1  0  0  0  0
 13 15  2  0  0  0  0
 13 16  1  0  0  0  0
 14 17  2  0  0  0  0
 14 18  1  0  0  0  0
 15 19  1  0  0  0  0
 15 38  1  0  0  0  0
 16 21  2  0  0  0  0
 16 39  1  0  0  0  0
 17 22  1  0  0  0  0
 17 40  1  0  0  0  0
 18 23  2  0  0  0  0
 18 41  1  0  0  0  0
 19 20  2  0  0  0  0
 19 24  1  0  0  0  0
 20 21  1  0  0  0  0
 21 42  1  0  0  0  0
 22 25  2  0  0  0  0
 23 25  1  0  0  0  0
 23 43  1  0  0  0  0
 24 44  1  0  0  0  0
M  END
> <PUBCHEM_COMPOUND_CID>
59799789

> <PUBCHEM_CONFORMER_RMSD>
0.8

> <PUBCHEM_CONFORMER_DIVERSEORDER>
1
123
97
202
53
61
141
87
66
233
213
227
224
236
11
168
43
215
45
184
71
241
199
91
220
106
177
185
109
163
24
113
28
96
30
54
198
117
33
134
46
124
84
219
149
4
229
138
93
115
38
44
145
83
122
211
162
27
166
10
34
112
58
107
237
230
52
67
173
232
188
136
156
140
191
190
20
55
111
105
205
186
143
62
74
154
82
226
110
214
100
41
146
22
64
155
65
121
132
195
238
131
208
200
207
31
159
158
127
165
218
246
80
150
180
75
167
181
148
239
23
119
189
194
139
235
77
88
169
17
73
225
39
56
201
72
142
174
209
118
78
242
5
193
85
32
175
86
204
92
26
19
130
212
147
223
244
157
176
47
221
129
7
89
172
6
49
59
245
183
161
126
42
171
99
234
116
120
48
79
240
51
76
108
144
103
151
3
247
36
178
69
37
206
40
243
182
160
2
60
135
128
101
90
94
57
35
152
16
196
179
133
192
102
187
197
9
210
216
228
13
50
164
8
222
12
21
217
114
153
104
98
25
29
95
231
170
70
63
137
81
18
68
203
14
15
125

> <PUBCHEM_MMFF94_PARTIAL_CHARGES>
31
1 -0.19
11 0.27
12 0.41
13 0.1
14 -0.14
15 -0.15
16 -0.15
17 -0.15
18 -0.15
2 -0.19
20 -0.15
21 -0.15
22 0.19
23 -0.15
24 0.14
25 0.19
3 -0.81
37 0.4
38 0.15
39 0.15
4 -0.87
40 0.15
41 0.15
42 0.15
43 0.15
44 0.15
45 0.27
5 0.3
6 -0.71
7 0.37
9 0.27

> <PUBCHEM_EFFECTIVE_ROTOR_COUNT>
5.2

> <PUBCHEM_PHARMACOPHORE_FEATURES>
9
1 3 cation
1 4 cation
1 4 donor
1 5 donor
1 6 acceptor
5 5 6 19 20 24 rings
6 13 15 16 19 20 21 rings
6 14 17 18 22 23 25 rings
6 3 7 8 9 10 11 rings

> <PUBCHEM_HEAVY_ATOM_COUNT>
25

> <PUBCHEM_ATOM_DEF_STEREO_COUNT>
1

> <PUBCHEM_ATOM_UDEF_STEREO_COUNT>
0

> <PUBCHEM_BOND_DEF_STEREO_COUNT>
0

> <PUBCHEM_BOND_UDEF_STEREO_COUNT>
0

> <PUBCHEM_ISOTOPIC_ATOM_COUNT>
0

> <PUBCHEM_COMPONENT_COUNT>
1

> <PUBCHEM_CACTVS_TAUTO_COUNT>
2

> <PUBCHEM_CONFORMER_ID>
039078ED00000001

> <PUBCHEM_MMFF94_ENERGY>
56.162

> <PUBCHEM_FEATURE_SELFOVERLAP>
45.763

> <PUBCHEM_SHAPE_FINGERPRINT>
10439779 11 18338506448808182506
10498660 4 18051700128786254404
10708813 3 18267309724829118485
11059048 146 18266480821747575812
11370993 70 18338510953753660764
11725454 13 16986296447500768906
12156800 1 12168225469083567672
12173636 292 18337390573112032239
12788726 201 17321832306072836986
12925494 130 18049727322276795905
13122387 1 16753257809208864789
13583140 156 17827661170574529667
13617811 41 18338502158705682693
138480 1 17976820891585271754
13965767 371 17895739812061291094
14466204 15 18337383830414382002
14468879 13 18189059844580664763
17980427 23 17768784517103104535
18681886 176 18053653686230291243
19930381 70 18409165489793467837
20567600 299 18052534366017075753
21344244 78 17033583852546351299
21860390 5 18054792775733222111
22113638 7 17764306141834026297
22749437 52 18409729603197593517
23558518 356 18411136935400908223
23559900 14 17988077773118575367
345986 75 16668797775586610074
469060 322 17833006201218405051
474 4 18260554372738295495
5048184 11 18337122231881783028
550186 7 17404889406230373476
6328613 192 18262238937012488940
6371009 1 18337935879128544886
7808743 9 17760093208682665356
84936 182 18412262804989538410
9981440 41 18336539542300809259

> <PUBCHEM_SHAPE_MULTIPOLES>
480.02
8.62
5.83
1.26
5.99
2.33
-0.02
-7.11
-0.79
-3.17
1.69
-0.85
-0.5
-0.78

> <PUBCHEM_SHAPE_SELFOVERLAP>
1048.473

> <PUBCHEM_SHAPE_VOLUME>
261.7

> <PUBCHEM_COORDINATE_TYPE>
2
5
10

$$$$
59799781
  -OEChem-05102415113D

 45 48  0     1  0  0  0  0  0999 V2000
   -1.9552   -3.1985    1.8003 F   0  0  0  0  0  0  0  0  0  0  0  0
   -2.9640   -4.0961   -0.5774 F   0  0  0  0  0  0  0  0  0  0  0  0
   -1.9996    2.1393   -0.1064 N   0  0  2  0  0  0  0  0  0  0  0  0
    1.6932    2.4386    0.4072 N   0  0  0  0  0  0  0  0  0  0  0  0
    4.4582   -2.2603   -0.1300 N   0  0  0  0  0  0  0  0  0  0  0  0
    3.6854   -3.0020   -0.9408 N   0  0  0  0  0  0  0  0  0  0  0  0
    0.4246    2.6269   -0.2657 C   0  0  2  0  0  0  0  0  0  0  0  0
    0.1290    4.1216   -0.3951 C   0  0  0  0  0  0  0  0  0  0  0  0
   -0.6869    1.9146    0.5164 C   0  0  0  0  0  0  0  0  0  0  0  0
   -1.2686    4.3408   -0.9638 C   0  0  0  0  0  0  0  0  0  0  0  0
   -2.3212    3.5718   -0.1645 C   0  0  0  0  0  0  0  0  0  0  0  0
   -3.0411    1.4102    0.6171 C   0  0  0  0  0  0  0  0  0  0  0  0
    2.4428    1.2797    0.3154 C   0  0  0  0  0  0  0  0  0  0  0  0
   -3.0206   -0.0610    0.2977 C   0  0  0  0  0  0  0  0  0  0  0  0
    1.9717    0.2160   -0.4645 C   0  0  0  0  0  0  0  0  0  0  0  0
    3.6561    1.1861    0.9996 C   0  0  0  0  0  0  0  0  0  0  0  0
   -2.4867   -0.9661    1.2148 C   0  0  0  0  0  0  0  0  0  0  0  0
   -3.5355   -0.5189   -0.9151 C   0  0  0  0  0  0  0  0  0  0  0  0
    2.7478   -0.9523   -0.5450 C   0  0  0  0  0  0  0  0  0  0  0  0
    3.9521   -1.0189    0.1464 C   0  0  0  0  0  0  0  0  0  0  0  0
    4.4399    0.0298    0.9292 C   0  0  0  0  0  0  0  0  0  0  0  0
   -2.4679   -2.3293    0.9194 C   0  0  0  0  0  0  0  0  0  0  0  0
   -3.5164   -1.8820   -1.2107 C   0  0  0  0  0  0  0  0  0  0  0  0
    2.6456   -2.2030   -1.1911 C   0  0  0  0  0  0  0  0  0  0  0  0
   -2.9827   -2.7872   -0.2934 C   0  0  0  0  0  0  0  0  0  0  0  0
    0.4689    2.2425   -1.2933 H   0  0  0  0  0  0  0  0  0  0  0  0
    0.8750    4.6048   -1.0375 H   0  0  0  0  0  0  0  0  0  0  0  0
    0.1998    4.6090    0.5864 H   0  0  0  0  0  0  0  0  0  0  0  0
   -0.4695    0.8442    0.5588 H   0  0  0  0  0  0  0  0  0  0  0  0
   -0.6902    2.2680    1.5578 H   0  0  0  0  0  0  0  0  0  0  0  0
   -1.5068    5.4105   -0.9557 H   0  0  0  0  0  0  0  0  0  0  0  0
   -1.2925    4.0162   -2.0119 H   0  0  0  0  0  0  0  0  0  0  0  0
   -3.2904    3.7176   -0.6571 H   0  0  0  0  0  0  0  0  0  0  0  0
   -2.4010    3.9951    0.8455 H   0  0  0  0  0  0  0  0  0  0  0  0
   -4.0359    1.7773    0.3270 H   0  0  0  0  0  0  0  0  0  0  0  0
   -2.9785    1.5793    1.7008 H   0  0  0  0  0  0  0  0  0  0  0  0
    2.0185    3.1628    1.0384 H   0  0  0  0  0  0  0  0  0  0  0  0
    1.0434    0.2382   -1.0214 H   0  0  0  0  0  0  0  0  0  0  0  0
    4.0120    2.0193    1.6024 H   0  0  0  0  0  0  0  0  0  0  0  0
   -2.0821   -0.6236    2.1634 H   0  0  0  0  0  0  0  0  0  0  0  0
   -3.9540    0.1764   -1.6381 H   0  0  0  0  0  0  0  0  0  0  0  0
    5.3825   -0.0448    1.4598 H   0  0  0  0  0  0  0  0  0  0  0  0
   -3.9169   -2.2389   -2.1550 H   0  0  0  0  0  0  0  0  0  0  0  0
    1.8551   -2.5641   -1.8338 H   0  0  0  0  0  0  0  0  0  0  0  0
    5.3258   -2.6623    0.2026 H   0  0  0  0  0  0  0  0  0  0  0  0
  1 22  1  0  0  0  0
  2 25  1  0  0  0  0
  3  9  1  0  0  0  0
  3 11  1  0  0  0  0
  3 12  1  0  0  0  0
  4  7  1  0  0  0  0
  4 13  1  0  0  0  0
  4 37  1  0  0  0  0
  5  6  1  0  0  0  0
  5 20  1  0  0  0  0
  5 45  1  0  0  0  0
  6 24  2  0  0  0  0
  7  8  1  0  0  0  0
  7  9  1  0  0  0  0
  7 26  1  0  0  0  0
  8 10  1  0  0  0  0
  8 27  1  0  0  0  0
  8 28  1  0  0  0  0
  9 29  1  0  0  0  0
  9 30  1  0  0  0  0
 10 11  1  0  0  0  0
 10 31  1  0  0  0  0
 10 32  1  0  0  0  0
 11 33  1  0  0  0  0
 11 34  1  0  0  0  0
 12 14  1  0  0  0  0
 12 35  1  0  0  0  0
 12 36  1  0  0  0  0
 13 15  2  0  0  0  0
 13 16  1  0  0  0  0
 14 17  2  0  0  0  0
 14 18  1  0  0  0  0
 15 19  1  0  0  0  0
 15 38  1  0  0  0  0
 16 21  2  0  0  0  0
 16 39  1  0  0  0  0
 17 22  1  0  0  0  0
 17 40  1  0  0  0  0
 18 23  2  0  0  0  0
 18 41  1  0  0  0  0
 19 20  2  0  0  0  0
 19 24  1  0  0  0  0
 20 21  1  0  0  0  0
 21 42  1  0  0  0  0
 22 25  2  0  0  0  0
 23 25  1  0  0  0  0
 23 43  1  0  0  0  0
 24 44  1  0  0  0  0
M  END
> <PUBCHEM_COMPOUND_CID>
59799781

> <PUBCHEM_CONFORMER_RMSD>
0.8

> <PUBCHEM_CONFORMER_DIVERSEORDER>
1
251
21
82
111
121
256
56
231
129
176
206
101
29
255
90
58
106
268
77
27
28
68
254
4
207
226
162
217
12
138
214
105
158
11
102
24
252
164
168
167
215
216
180
200
222
156
61
63
143
50
94
5
110
165
264
173
45
197
237
127
60
57
132
245
100
81
33
242
193
155
249
54
201
84
88
191
241
262
169
182
263
271
139
51
126
259
247
184
177
124
66
194
267
223
112
85
159
196
266
49
170
135
128
120
44
250
7
114
16
76
175
154
42
232
166
14
47
23
174
80
265
78
151
18
211
270
218
71
204
243
117
260
122
208
97
188
179
190
213
6
119
253
163
224
83
75
107
157
149
31
225
171
192
189
273
210
130
8
64
38
69
272
123
148
17
257
269
93
142
187
228
109
229
240
198
137
146
99
108
95
46
53
113
186
244
72
141
199
202
258
234
220
172
203
104
205
86
92
152
131
185
65
36
2
87
41
233
115
144
74
181
219
212
118
20
230
133
26
239
160
52
140
59
3
147
10
73
261
248
236
221
136
25
183
34
209
235
116
39
125
43
134
227
89
35
13
70
153
238
30
150
48
62
103
91
96
40
15
178
145
22
195
19
55
161
37
32
246
9
98
79
67

> <PUBCHEM_MMFF94_PARTIAL_CHARGES>
31
1 -0.19
11 0.27
12 0.41
13 0.1
14 -0.14
15 -0.15
16 -0.15
17 -0.15
18 -0.15
2 -0.19
20 -0.15
21 -0.15
22 0.19
23 -0.15
24 0.14
25 0.19
3 -0.81
37 0.4
38 0.15
39 0.15
4 -0.87
40 0.15
41 0.15
42 0.15
43 0.15
44 0.15
45 0.27
5 0.3
6 -0.71
7 0.37
9 0.27

> <PUBCHEM_EFFECTIVE_ROTOR_COUNT>
5.2

> <PUBCHEM_PHARMACOPHORE_FEATURES>
9
1 3 cation
1 4 cation
1 4 donor
1 5 donor
1 6 acceptor
5 5 6 19 20 24 rings
6 13 15 16 19 20 21 rings
6 14 17 18 22 23 25 rings
6 3 7 8 9 10 11 rings

> <PUBCHEM_HEAVY_ATOM_COUNT>
25

> <PUBCHEM_ATOM_DEF_STEREO_COUNT>
1

> <PUBCHEM_ATOM_UDEF_STEREO_COUNT>
0

> <PUBCHEM_BOND_DEF_STEREO_COUNT>
0

> <PUBCHEM_BOND_UDEF_STEREO_COUNT>
0

> <PUBCHEM_ISOTOPIC_ATOM_COUNT>
0

> <PUBCHEM_COMPONENT_COUNT>
1

> <PUBCHEM_CACTVS_TAUTO_COUNT>
2

> <PUBCHEM_CONFORMER_ID>
039078E500000001

> <PUBCHEM_MMFF94_ENERGY>
56.1938

> <PUBCHEM_FEATURE_SELFOVERLAP>
45.763

> <PUBCHEM_SHAPE_FINGERPRINT>
10764073 3 17970943049464790291
107951 10 16955935310447625921
10940486 97 18046641014501286516
1100329 8 14521157812520740588
11014199 57 18339365287247405455
11552529 35 17917709097734500960
12156800 1 16116762798953230277
12422481 6 18126313899192753449
12553582 1 18265066879906200693
13122387 1 16898500013861915782
13402501 40 18054232024855251028
1361 2 16537634328180830623
138480 1 15600607802511890853
14251757 5 18050312296341839782
14659021 117 18337658729484737754
14725015 67 18195245508147039215
15927050 60 17403734446590967245
16719943 64 17616256883964069414
19141452 34 18342459201668427073
19315092 285 16555917930892126367
19930381 70 17906731754348286535
20775530 9 18341615948757341050
22113638 7 17765986586295696678
23559900 14 18122894593586218089
3298306 158 17183061345623980805
3493558 16 10367720855685637249
445580 102 17686907528124767963
469060 322 17554848373657667356
5265222 85 17615997425311179956
5309563 4 17906457980110612243
550186 72 18336263548462861140
56633871 153 18341059592317483395
613672 6 18265880527095460299
9709674 26 18412542076943217392

> <PUBCHEM_SHAPE_MULTIPOLES>
480.02
8.48
5.94
1.18
5.96
2.17
0.12
-6.26
0.08
-3.84
-1.18
-0.26
-0.57
1.16

> <PUBCHEM_SHAPE_SELFOVERLAP>
1048.384

> <PUBCHEM_SHAPE_VOLUME>
261.8

> <PUBCHEM_COORDINATE_TYPE>
2
5
10

$$$$
44594370
  -OEChem-05102415113D

 49 52  0     1  0  0  0  0  0999 V2000
   -3.1254   -4.3799   -0.2165 S   0  0  0  0  0  0  0  0  0  0  0  0
   -1.9673    2.2790   -0.0956 N   0  0  2  0  0  0  0  0  0  0  0  0
    1.7446    2.4997    0.3076 N   0  0  0  0  0  0  0  0  0  0  0  0
    4.3619   -2.3033   -0.0024 N   0  0  0  0  0  0  0  0  0  0  0  0
    3.5474   -3.0705   -0.7461 N   0  0  0  0  0  0  0  0  0  0  0  0
    0.4647    2.6836   -0.3446 C   0  0  2  0  0  0  0  0  0  0  0  0
    0.2079    4.1755   -0.5602 C   0  0  0  0  0  0  0  0  0  0  0  0
   -0.6455    2.0544    0.5076 C   0  0  0  0  0  0  0  0  0  0  0  0
   -1.1974    4.4005   -1.1070 C   0  0  0  0  0  0  0  0  0  0  0  0
   -2.2499    3.7141   -0.2356 C   0  0  0  0  0  0  0  0  0  0  0  0
   -3.0096    1.6273    0.6973 C   0  0  0  0  0  0  0  0  0  0  0  0
    2.4588    1.3156    0.2700 C   0  0  0  0  0  0  0  0  0  0  0  0
   -3.0388    0.1392    0.4703 C   0  0  0  0  0  0  0  0  0  0  0  0
    1.9377    0.2201   -0.4300 C   0  0  0  0  0  0  0  0  0  0  0  0
    3.6866    1.2286    0.9288 C   0  0  0  0  0  0  0  0  0  0  0  0
   -3.5980   -0.3777   -0.6983 C   0  0  0  0  0  0  0  0  0  0  0  0
   -2.5062   -0.7225    1.4292 C   0  0  0  0  0  0  0  0  0  0  0  0
    2.6784   -0.9733   -0.4564 C   0  0  0  0  0  0  0  0  0  0  0  0
    3.8982   -1.0327    0.2082 C   0  0  0  0  0  0  0  0  0  0  0  0
    4.4356    0.0474    0.9117 C   0  0  0  0  0  0  0  0  0  0  0  0
   -3.6249   -1.7564   -0.9080 C   0  0  0  0  0  0  0  0  0  0  0  0
   -2.5330   -2.1012    1.2196 C   0  0  0  0  0  0  0  0  0  0  0  0
   -3.0924   -2.6182    0.0510 C   0  0  0  0  0  0  0  0  0  0  0  0
    2.5243   -2.2580   -1.0202 C   0  0  0  0  0  0  0  0  0  0  0  0
   -1.3579   -4.7914   -0.1803 C   0  0  0  0  0  0  0  0  0  0  0  0
    0.4711    2.2351   -1.3469 H   0  0  0  0  0  0  0  0  0  0  0  0
    0.3182    4.7204    0.3868 H   0  0  0  0  0  0  0  0  0  0  0  0
    0.9501    4.5956   -1.2497 H   0  0  0  0  0  0  0  0  0  0  0  0
   -0.4572    0.9827    0.6116 H   0  0  0  0  0  0  0  0  0  0  0  0
   -0.6114    2.4715    1.5246 H   0  0  0  0  0  0  0  0  0  0  0  0
   -1.4051    5.4752   -1.1602 H   0  0  0  0  0  0  0  0  0  0  0  0
   -1.2579    4.0124   -2.1318 H   0  0  0  0  0  0  0  0  0  0  0  0
   -3.2271    3.8578   -0.7125 H   0  0  0  0  0  0  0  0  0  0  0  0
   -2.2911    4.2013    0.7476 H   0  0  0  0  0  0  0  0  0  0  0  0
   -2.9139    1.8614    1.7665 H   0  0  0  0  0  0  0  0  0  0  0  0
   -4.0009    2.0051    0.4092 H   0  0  0  0  0  0  0  0  0  0  0  0
    2.1066    3.2516    0.8841 H   0  0  0  0  0  0  0  0  0  0  0  0
    0.9960    0.2353   -0.9643 H   0  0  0  0  0  0  0  0  0  0  0  0
    4.0814    2.0865    1.4694 H   0  0  0  0  0  0  0  0  0  0  0  0
   -4.0158    0.2836   -1.4528 H   0  0  0  0  0  0  0  0  0  0  0  0
   -2.0686   -0.3331    2.3446 H   0  0  0  0  0  0  0  0  0  0  0  0
    5.3893   -0.0221    1.4227 H   0  0  0  0  0  0  0  0  0  0  0  0
   -4.0645   -2.1409   -1.8251 H   0  0  0  0  0  0  0  0  0  0  0  0
   -2.1182   -2.7536    1.9838 H   0  0  0  0  0  0  0  0  0  0  0  0
    1.7070   -2.6347   -1.6191 H   0  0  0  0  0  0  0  0  0  0  0  0
    5.2262   -2.7096    0.3333 H   0  0  0  0  0  0  0  0  0  0  0  0
   -0.8124   -4.1917   -0.9141 H   0  0  0  0  0  0  0  0  0  0  0  0
   -0.9395   -4.6175    0.8144 H   0  0  0  0  0  0  0  0  0  0  0  0
   -1.2314   -5.8483   -0.4293 H   0  0  0  0  0  0  0  0  0  0  0  0
  1 23  1  0  0  0  0
  1 25  1  0  0  0  0
  2  8  1  0  0  0  0
  2 10  1  0  0  0  0
  2 11  1  0  0  0  0
  3  6  1  0  0  0  0
  3 12  1  0  0  0  0
  3 37  1  0  0  0  0
  4  5  1  0  0  0  0
  4 19  1  0  0  0  0
  4 46  1  0  0  0  0
  5 24  2  0  0  0  0
  6  7  1  0  0  0  0
  6  8  1  0  0  0  0
  6 26  1  0  0  0  0
  7  9  1  0  0  0  0
  7 27  1  0  0  0  0
  7 28  1  0  0  0  0
  8 29  1  0  0  0  0
  8 30  1  0  0  0  0
  9 10  1  0  0  0  0
  9 31  1  0  0  0  0
  9 32  1  0  0  0  0
 10 33  1  0  0  0  0
 10 34  1  0  0  0  0
 11 13  1  0  0  0  0
 11 35  1  0  0  0  0
 11 36  1  0  0  0  0
 12 14  2  0  0  0  0
 12 15  1  0  0  0  0
 13 16  2  0  0  0  0
 13 17  1  0  0  0  0
 14 18  1  0  0  0  0
 14 38  1  0  0  0  0
 15 20  2  0  0  0  0
 15 39  1  0  0  0  0
 16 21  1  0  0  0  0
 16 40  1  0  0  0  0
 17 22  2  0  0  0  0
 17 41  1  0  0  0  0
 18 19  2  0  0  0  0
 18 24  1  0  0  0  0
 19 20  1  0  0  0  0
 20 42  1  0  0  0  0
 21 23  2  0  0  0  0
 21 43  1  0  0  0  0
 22 23  1  0  0  0  0
 22 44  1  0  0  0  0
 24 45  1  0  0  0  0
 25 47  1  0  0  0  0
 25 48  1  0  0  0  0
 25 49  1  0  0  0  0
M  END
> <PUBCHEM_COMPOUND_CID>
44594370

> <PUBCHEM_CONFORMER_RMSD>
0.8

> <PUBCHEM_CONFORMER_DIVERSEORDER>
1
6
30
202
116
203
194
67
205
105
102
137
201
62
247
231
86
229
168
46
43
21
19
180
52
23
110
192
216
235
121
37
195
80
236
18
199
161
185
56
38
50
209
215
54
176
119
93
165
88
24
188
224
132
103
177
94
53
207
183
76
58
41
223
230
5
151
90
184
130
112
239
17
166
107
249
74
232
167
219
227
158
212
143
72
248
77
59
145
214
122
220
163
101
91
115
32
83
186
225
78
238
39
197
221
97
124
33
243
69
234
169
127
28
242
45
182
89
82
40
75
99
213
16
155
108
210
73
160
240
65
20
152
126
196
171
131
200
61
34
159
217
133
146
11
57
95
128
178
135
147
150
189
120
139
81
138
141
84
117
170
98
104
87
13
154
198
113
211
244
191
22
233
172
237
174
42
222
3
10
109
226
228
175
2
48
14
153
31
129
44
156
70
136
246
187
140
85
206
142
60
173
51
111
114
118
181
157
125
36
64
8
4
144
164
204
162
218
25
241
15
12
49
100
208
55
68
193
149
27
79
9
71
92
134
190
179
26
96
245
7
66
148
47
106
63
35
123
29

> <PUBCHEM_MMFF94_PARTIAL_CHARGES>
32
1 -0.33
10 0.27
11 0.41
12 0.1
13 -0.14
14 -0.15
15 -0.15
16 -0.15
17 -0.15
19 -0.15
2 -0.81
20 -0.15
21 -0.15
22 -0.15
23 0.1
24 0.14
25 0.23
3 -0.87
37 0.4
38 0.15
39 0.15
4 0.3
40 0.15
41 0.15
42 0.15
43 0.15
44 0.15
45 0.15
46 0.27
5 -0.71
6 0.37
8 0.27

> <PUBCHEM_EFFECTIVE_ROTOR_COUNT>
6.2

> <PUBCHEM_PHARMACOPHORE_FEATURES>
10
1 2 cation
1 25 hydrophobe
1 3 cation
1 3 donor
1 4 donor
1 5 acceptor
5 4 5 18 19 24 rings
6 12 14 15 18 19 20 rings
6 13 16 17 21 22 23 rings
6 2 6 7 8 9 10 rings

> <PUBCHEM_HEAVY_ATOM_COUNT>
25

> <PUBCHEM_ATOM_DEF_STEREO_COUNT>
1

> <PUBCHEM_ATOM_UDEF_STEREO_COUNT>
0

> <PUBCHEM_BOND_DEF_STEREO_COUNT>
0

> <PUBCHEM_BOND_UDEF_STEREO_COUNT>
0

> <PUBCHEM_ISOTOPIC_ATOM_COUNT>
0

> <PUBCHEM_COMPONENT_COUNT>
1

> <PUBCHEM_CACTVS_TAUTO_COUNT>
2

> <PUBCHEM_CONFORMER_ID>
02A874C200000001

> <PUBCHEM_MMFF94_ENERGY>
61.6649

> <PUBCHEM_FEATURE_SELFOVERLAP>
50.837

> <PUBCHEM_SHAPE_FINGERPRINT>
10764073 3 17824856441350928827
107951 10 16811258263340106913
10940486 97 18117572721511537756
1100329 8 14880882845599376972
11014199 57 18339084916008789519
11552529 35 17988640778964951152
12038231 1 18411703140670521031
12422481 6 18125470556584057977
12553582 1 18264786500151431769
13122387 1 16753821854331506215
13402501 40 18053106112042446404
1361 2 16392678022331159699
138480 1 15744160044929084773
14117953 113 18269559493403133847
14251757 5 18050029717526982950
14659021 117 18337378354014503586
14725015 67 18267300920357567431
15110567 62 16754099563191656043
16719943 64 17615974309465259418
19141452 34 18341334396978296953
19930381 70 17833830847787214883
20764821 26 17042894482223448766
20775530 9 18340772632002631043
21133410 52 17404849845539173366
21133410 62 15672079030467518334
22113638 7 17765145459863583110
23559900 14 17978781634740410857
3027735 51 18051404072880825069
3298306 158 17255401514187085973
463206 1 17976540842712147283
469060 322 17626343009126008436
5265222 85 17688053932674837716
5309563 4 17979076312235904555
550186 72 18335701680904462980
56633871 153 18340217366405293379
613672 6 18266442377605845055
9709674 26 18339920394849182464

> <PUBCHEM_SHAPE_MULTIPOLES>
498.41
8.44
6.96
1.08
1.06
1.83
0.11
-8.1
0.92
-1.51
-2.13
-0.21
0
0.17

> <PUBCHEM_SHAPE_SELFOVERLAP>
1060.808

> <PUBCHEM_SHAPE_VOLUME>
280.2

> <PUBCHEM_COORDINATE_TYPE>
2
5
10

$$$$
44594373
  -OEChem-05102415113D

 49 52  0     1  0  0  0  0  0999 V2000
    3.3032    4.2429   -0.0084 S   0  0  0  0  0  0  0  0  0  0  0  0
    1.8428   -2.3556    0.1262 N   0  0  1  0  0  0  0  0  0  0  0  0
   -1.8728   -2.4206   -0.2561 N   0  0  0  0  0  0  0  0  0  0  0  0
   -4.2600    2.5091   -0.1161 N   0  0  0  0  0  0  0  0  0  0  0  0
   -3.4074    3.2636    0.5970 N   0  0  0  0  0  0  0  0  0  0  0  0
   -0.6014   -2.6416    0.3991 C   0  0  1  0  0  0  0  0  0  0  0  0
   -0.4135   -4.1342    0.6701 C   0  0  0  0  0  0  0  0  0  0  0  0
    0.5292   -2.0942   -0.4804 C   0  0  0  0  0  0  0  0  0  0  0  0
    0.9831   -4.4010    1.2210 C   0  0  0  0  0  0  0  0  0  0  0  0
    2.0609   -3.7958    0.3204 C   0  0  0  0  0  0  0  0  0  0  0  0
    2.9092   -1.7828   -0.6951 C   0  0  0  0  0  0  0  0  0  0  0  0
   -2.5306   -1.2030   -0.2602 C   0  0  0  0  0  0  0  0  0  0  0  0
    3.0069   -0.2899   -0.5258 C   0  0  0  0  0  0  0  0  0  0  0  0
   -1.9558   -0.1088    0.3984 C   0  0  0  0  0  0  0  0  0  0  0  0
   -3.7553   -1.0822   -0.9193 C   0  0  0  0  0  0  0  0  0  0  0  0
    2.8616    0.5489   -1.6307 C   0  0  0  0  0  0  0  0  0  0  0  0
    3.2426    0.2542    0.7368 C   0  0  0  0  0  0  0  0  0  0  0  0
   -2.6393    1.1186    0.3825 C   0  0  0  0  0  0  0  0  0  0  0  0
   -3.8574    1.2112   -0.2814 C   0  0  0  0  0  0  0  0  0  0  0  0
   -4.4476    0.1328   -0.9440 C   0  0  0  0  0  0  0  0  0  0  0  0
    2.9524    1.9318   -1.4733 C   0  0  0  0  0  0  0  0  0  0  0  0
    3.3333    1.6372    0.8943 C   0  0  0  0  0  0  0  0  0  0  0  0
    3.1881    2.4760   -0.2107 C   0  0  0  0  0  0  0  0  0  0  0  0
   -2.4227    2.4142    0.8986 C   0  0  0  0  0  0  0  0  0  0  0  0
    1.9508    4.5693    1.1574 C   0  0  0  0  0  0  0  0  0  0  0  0
   -0.5822   -2.1561    1.3838 H   0  0  0  0  0  0  0  0  0  0  0  0
   -1.1707   -4.4933    1.3774 H   0  0  0  0  0  0  0  0  0  0  0  0
   -0.5528   -4.7089   -0.2552 H   0  0  0  0  0  0  0  0  0  0  0  0
    0.4715   -2.5491   -1.4801 H   0  0  0  0  0  0  0  0  0  0  0  0
    0.3963   -1.0182   -0.6295 H   0  0  0  0  0  0  0  0  0  0  0  0
    1.0659   -3.9773    2.2300 H   0  0  0  0  0  0  0  0  0  0  0  0
    1.1429   -5.4812    1.3144 H   0  0  0  0  0  0  0  0  0  0  0  0
    2.0754   -4.3216   -0.6434 H   0  0  0  0  0  0  0  0  0  0  0  0
    3.0332   -3.9650    0.7992 H   0  0  0  0  0  0  0  0  0  0  0  0
    3.8852   -2.1845   -0.3883 H   0  0  0  0  0  0  0  0  0  0  0  0
    2.7939   -2.0605   -1.7514 H   0  0  0  0  0  0  0  0  0  0  0  0
   -2.2727   -3.1748   -0.8039 H   0  0  0  0  0  0  0  0  0  0  0  0
   -1.0138   -0.1490    0.9307 H   0  0  0  0  0  0  0  0  0  0  0  0
   -4.1921   -1.9397   -1.4275 H   0  0  0  0  0  0  0  0  0  0  0  0
    2.6761    0.1388   -2.6198 H   0  0  0  0  0  0  0  0  0  0  0  0
    3.3646   -0.3869    1.6059 H   0  0  0  0  0  0  0  0  0  0  0  0
   -5.3990    0.2287   -1.4553 H   0  0  0  0  0  0  0  0  0  0  0  0
    2.8357    2.5697   -2.3460 H   0  0  0  0  0  0  0  0  0  0  0  0
    3.5255    2.0382    1.8862 H   0  0  0  0  0  0  0  0  0  0  0  0
   -1.5864    2.7735    1.4817 H   0  0  0  0  0  0  0  0  0  0  0  0
   -5.1056    2.9432   -0.4646 H   0  0  0  0  0  0  0  0  0  0  0  0
    1.0078    4.1785    0.7653 H   0  0  0  0  0  0  0  0  0  0  0  0
    2.1577    4.1129    2.1288 H   0  0  0  0  0  0  0  0  0  0  0  0
    1.8508    5.6490    1.2962 H   0  0  0  0  0  0  0  0  0  0  0  0
  1 23  1  0  0  0  0
  1 25  1  0  0  0  0
  2  8  1  0  0  0  0
  2 10  1  0  0  0  0
  2 11  1  0  0  0  0
  3  6  1  0  0  0  0
  3 12  1  0  0  0  0
  3 37  1  0  0  0  0
  4  5  1  0  0  0  0
  4 19  1  0  0  0  0
  4 46  1  0  0  0  0
  5 24  2  0  0  0  0
  6  7  1  0  0  0  0
  6  8  1  0  0  0  0
  6 26  1  0  0  0  0
  7  9  1  0  0  0  0
  7 27  1  0  0  0  0
  7 28  1  0  0  0  0
  8 29  1  0  0  0  0
  8 30  1  0  0  0  0
  9 10  1  0  0  0  0
  9 31  1  0  0  0  0
  9 32  1  0  0  0  0
 10 33  1  0  0  0  0
 10 34  1  0  0  0  0
 11 13  1  0  0  0  0
 11 35  1  0  0  0  0
 11 36  1  0  0  0  0
 12 14  2  0  0  0  0
 12 15  1  0  0  0  0
 13 16  2  0  0  0  0
 13 17  1  0  0  0  0
 14 18  1  0  0  0  0
 14 38  1  0  0  0  0
 15 20  2  0  0  0  0
 15 39  1  0  0  0  0
 16 21  1  0  0  0  0
 16 40  1  0  0  0  0
 17 22  2  0  0  0  0
 17 41  1  0  0  0  0
 18 19  2  0  0  0  0
 18 24  1  0  0  0  0
 19 20  1  0  0  0  0
 20 42  1  0  0  0  0
 21 23  2  0  0  0  0
 21 43  1  0  0  0  0
 22 23  1  0  0  0  0
 22 44  1  0  0  0  0
 24 45  1  0  0  0  0
 25 47  1  0  0  0  0
 25 48  1  0  0  0  0
 25 49  1  0  0  0  0
M  END
> <PUBCHEM_COMPOUND_CID>
44594373

> <PUBCHEM_CONFORMER_RMSD>
0.8

> <PUBCHEM_CONFORMER_DIVERSEORDER>
1
66
31
170
108
123
164
196
144
127
44
82
15
140
155
195
179
192
132
85
153
183
95
143
138
103
17
204
56
69
27
112
187
28
60
203
171
189
11
168
150
42
61
32
39
148
38
152
92
25
145
163
185
116
5
141
99
181
173
106
190
174
160
79
114
47
197
104
45
124
191
94
165
134
9
135
89
64
19
133
154
24
120
193
16
126
65
205
100
113
8
200
43
71
129
67
107
80
156
199
198
142
121
184
58
10
178
96
46
41
128
176
63
101
62
84
7
162
12
137
97
57
51
194
117
161
158
4
33
122
201
159
68
22
125
180
151
70
202
73
78
29
131
30
139
74
118
93
146
36
147
18
175
157
188
55
182
119
110
34
98
115
2
149
14
86
52
77
177
90
37
172
48
136
76
166
186
13
50
169
75
81
111
26
3
40
53
109
167
21
88
130
59
35
105
49
20
102
23
54
91
87
6
83
72

> <PUBCHEM_MMFF94_PARTIAL_CHARGES>
32
1 -0.33
10 0.27
11 0.41
12 0.1
13 -0.14
14 -0.15
15 -0.15
16 -0.15
17 -0.15
19 -0.15
2 -0.81
20 -0.15
21 -0.15
22 -0.15
23 0.1
24 0.14
25 0.23
3 -0.87
37 0.4
38 0.15
39 0.15
4 0.3
40 0.15
41 0.15
42 0.15
43 0.15
44 0.15
45 0.15
46 0.27
5 -0.71
6 0.37
8 0.27

> <PUBCHEM_EFFECTIVE_ROTOR_COUNT>
6.2

> <PUBCHEM_PHARMACOPHORE_FEATURES>
10
1 2 cation
1 25 hydrophobe
1 3 cation
1 3 donor
1 4 donor
1 5 acceptor
5 4 5 18 19 24 rings
6 12 14 15 18 19 20 rings
6 13 16 17 21 22 23 rings
6 2 6 7 8 9 10 rings

> <PUBCHEM_HEAVY_ATOM_COUNT>
25

> <PUBCHEM_ATOM_DEF_STEREO_COUNT>
1

> <PUBCHEM_ATOM_UDEF_STEREO_COUNT>
0

> <PUBCHEM_BOND_DEF_STEREO_COUNT>
0

> <PUBCHEM_BOND_UDEF_STEREO_COUNT>
0

> <PUBCHEM_ISOTOPIC_ATOM_COUNT>
0

> <PUBCHEM_COMPONENT_COUNT>
1

> <PUBCHEM_CACTVS_TAUTO_COUNT>
2

> <PUBCHEM_CONFORMER_ID>
02A874C500000001

> <PUBCHEM_MMFF94_ENERGY>
61.6708

> <PUBCHEM_FEATURE_SELFOVERLAP>
50.837

> <PUBCHEM_SHAPE_FINGERPRINT>
100830 39 17617941774524389056
10439779 11 18338785746336447514
10498660 4 18051697938442565214
10670039 82 17182513222451995516
10675989 125 18340475742911300673
10764073 3 10908956310006152874
11059048 146 18267042672242181748
11370993 70 18337666533176479444
12156800 1 12167377749908160472
12788726 201 17538569103181343562
12925494 130 17978232660970274113
13122387 1 16537647959831735748
13402501 40 17334499796483873448
13561361 72 16684844619745255080
13583140 156 17827941533133663627
13590594 115 17545325176900655242
13617811 41 18338781413157921069
138480 1 18049440336101767162
13965767 371 17823680023363731078
14466204 15 18337663127911057042
14790565 3 18342746179078102737
17980427 23 17767938979771272063
18681886 176 18053089641049646963
19930381 70 18410008810848536953
20398071 114 18268146650567334704
20567600 299 18051970316457009685
21344244 78 17033864232280008187
21860390 5 17982170019833812847
22113638 7 17764023562966382985
22749437 52 18409165545142479940
23558518 356 18411416202769722951
23559900 14 18273210893845569180
3117164 225 18120635084970810344
345986 75 16451780568595480858
469060 322 17111306650118196890
474 4 18188495666288098063
50150288 127 16194577663123066097
5048184 11 18337121119543184668
550186 7 17476944801292447124
6328613 192 18261677073711939940
6371009 1 18266436845682374776
84936 182 18411418375775053546
9981440 41 18335976588004980354

> <PUBCHEM_SHAPE_MULTIPOLES>
498.41
8.45
6.87
1.19
0.6
2.08
-0.16
-8.56
-1.58
-0.8
2.72
-0.58
-0.1
0.39

> <PUBCHEM_SHAPE_SELFOVERLAP>
1060.896

> <PUBCHEM_SHAPE_VOLUME>
280.3

> <PUBCHEM_COORDINATE_TYPE>
2
5
10

$$$$
44599394
  -OEChem-05102415113D

 47 50  0     1  0  0  0  0  0999 V2000
   -1.4308    2.5990   -0.0943 N   0  0  2  0  0  0  0  0  0  0  0  0
    2.2576    2.1153    0.2954 N   0  0  0  0  0  0  0  0  0  0  0  0
    3.9183   -3.0969   -0.0027 N   0  0  0  0  0  0  0  0  0  0  0  0
    2.9704   -3.6990   -0.7403 N   0  0  0  0  0  0  0  0  0  0  0  0
    1.0328    2.5356   -0.3532 C   0  0  2  0  0  0  0  0  0  0  0  0
    1.0618    4.0483   -0.5743 C   0  0  0  0  0  0  0  0  0  0  0  0
   -0.1727    2.1307    0.5055 C   0  0  0  0  0  0  0  0  0  0  0  0
   -0.2779    4.5330   -1.1174 C   0  0  0  0  0  0  0  0  0  0  0  0
   -1.4375    4.0611   -0.2394 C   0  0  0  0  0  0  0  0  0  0  0  0
   -2.5742    2.1590    0.7050 C   0  0  0  0  0  0  0  0  0  0  0  0
    2.7349    0.8175    0.2605 C   0  0  0  0  0  0  0  0  0  0  0  0
   -2.8851    0.7024    0.4845 C   0  0  0  0  0  0  0  0  0  0  0  0
    2.0132   -0.1622   -0.4330 C   0  0  0  0  0  0  0  0  0  0  0  0
    3.9268    0.5022    0.9155 C   0  0  0  0  0  0  0  0  0  0  0  0
   -3.5368    0.2970   -0.6802 C   0  0  0  0  0  0  0  0  0  0  0  0
   -2.5214   -0.2414    1.4449 C   0  0  0  0  0  0  0  0  0  0  0  0
    2.5148   -1.4742   -0.4568 C   0  0  0  0  0  0  0  0  0  0  0  0
    3.7041   -1.7609    0.2040 C   0  0  0  0  0  0  0  0  0  0  0  0
    4.4389   -0.7993    0.9010 C   0  0  0  0  0  0  0  0  0  0  0  0
   -3.8249   -1.0524   -0.8844 C   0  0  0  0  0  0  0  0  0  0  0  0
   -2.8095   -1.5908    1.2407 C   0  0  0  0  0  0  0  0  0  0  0  0
    2.1183   -2.7087   -1.0145 C   0  0  0  0  0  0  0  0  0  0  0  0
   -3.4610   -1.9963    0.0760 C   0  0  0  0  0  0  0  0  0  0  0  0
   -3.7561   -3.3786   -0.1333 C   0  0  0  0  0  0  0  0  0  0  0  0
   -4.0039   -4.5404   -0.3089 C   0  0  0  0  0  0  0  0  0  0  0  0
    0.9502    2.0904   -1.3536 H   0  0  0  0  0  0  0  0  0  0  0  0
    1.2771    4.5660    0.3699 H   0  0  0  0  0  0  0  0  0  0  0  0
    1.8672    4.3180   -1.2682 H   0  0  0  0  0  0  0  0  0  0  0  0
   -0.0562    2.5375    1.5205 H   0  0  0  0  0  0  0  0  0  0  0  0
   -0.1900    1.0431    0.6135 H   0  0  0  0  0  0  0  0  0  0  0  0
   -0.2789    5.6274   -1.1745 H   0  0  0  0  0  0  0  0  0  0  0  0
   -0.4149    4.1597   -2.1403 H   0  0  0  0  0  0  0  0  0  0  0  0
   -1.3819    4.5509    0.7417 H   0  0  0  0  0  0  0  0  0  0  0  0
   -2.3719    4.3853   -0.7137 H   0  0  0  0  0  0  0  0  0  0  0  0
   -2.4315    2.3744    1.7728 H   0  0  0  0  0  0  0  0  0  0  0  0
   -3.4774    2.7164    0.4187 H   0  0  0  0  0  0  0  0  0  0  0  0
    2.7576    2.7873    0.8675 H   0  0  0  0  0  0  0  0  0  0  0  0
    1.0892    0.0288   -0.9642 H   0  0  0  0  0  0  0  0  0  0  0  0
    4.4789    1.2720    1.4511 H   0  0  0  0  0  0  0  0  0  0  0  0
   -3.8250    1.0230   -1.4359 H   0  0  0  0  0  0  0  0  0  0  0  0
   -2.0130    0.0607    2.3567 H   0  0  0  0  0  0  0  0  0  0  0  0
    5.3644   -1.0460    1.4091 H   0  0  0  0  0  0  0  0  0  0  0  0
   -4.3333   -1.3528   -1.7975 H   0  0  0  0  0  0  0  0  0  0  0  0
   -2.5192   -2.3145    1.9985 H   0  0  0  0  0  0  0  0  0  0  0  0
    1.2423   -2.9261   -1.6094 H   0  0  0  0  0  0  0  0  0  0  0  0
    4.6916   -3.6581    0.3319 H   0  0  0  0  0  0  0  0  0  0  0  0
   -4.2237   -5.5707   -0.4647 H   0  0  0  0  0  0  0  0  0  0  0  0
  1  7  1  0  0  0  0
  1  9  1  0  0  0  0
  1 10  1  0  0  0  0
  2  5  1  0  0  0  0
  2 11  1  0  0  0  0
  2 37  1  0  0  0  0
  3  4  1  0  0  0  0
  3 18  1  0  0  0  0
  3 46  1  0  0  0  0
  4 22  2  0  0  0  0
  5  6  1  0  0  0  0
  5  7  1  0  0  0  0
  5 26  1  0  0  0  0
  6  8  1  0  0  0  0
  6 27  1  0  0  0  0
  6 28  1  0  0  0  0
  7 29  1  0  0  0  0
  7 30  1  0  0  0  0
  8  9  1  0  0  0  0
  8 31  1  0  0  0  0
  8 32  1  0  0  0  0
  9 33  1  0  0  0  0
  9 34  1  0  0  0  0
 10 12  1  0  0  0  0
 10 35  1  0  0  0  0
 10 36  1  0  0  0  0
 11 13  2  0  0  0  0
 11 14  1  0  0  0  0
 12 15  2  0  0  0  0
 12 16  1  0  0  0  0
 13 17  1  0  0  0  0
 13 38  1  0  0  0  0
 14 19  2  0  0  0  0
 14 39  1  0  0  0  0
 15 20  1  0  0  0  0
 15 40  1  0  0  0  0
 16 21  2  0  0  0  0
 16 41  1  0  0  0  0
 17 18  2  0  0  0  0
 17 22  1  0  0  0  0
 18 19  1  0  0  0  0
 19 42  1  0  0  0  0
 20 23  2  0  0  0  0
 20 43  1  0  0  0  0
 21 23  1  0  0  0  0
 21 44  1  0  0  0  0
 22 45  1  0  0  0  0
 23 24  1  0  0  0  0
 24 25  3  0  0  0  0
 25 47  1  0  0  0  0
M  END
> <PUBCHEM_COMPOUND_CID>
44599394

> <PUBCHEM_CONFORMER_RMSD>
0.8

> <PUBCHEM_CONFORMER_DIVERSEORDER>
1
50
70
115
6
85
82
31
38
60
28
30
55
11
106
51
94
16
58
99
80
12
40
75
29
78
108
64
98
46
107
84
102
88
93
95
22
4
54
36
21
114
47
56
100
33
23
43
103
81
68
17
92
73
41
63
5
101
8
59
67
74
91
53
57
105
26
71
104
109
3
2
44
112
111
52
76
66
97
83
13
48
113
89
110
79
19
9
86
69
37
27
90
35
10
45
49
24
65
32
39
14
77
15
7
25
87
72
62
42
18
96
61
20
34

> <PUBCHEM_MMFF94_PARTIAL_CHARGES>
33
1 -0.81
10 0.41
11 0.1
12 -0.14
13 -0.15
14 -0.15
15 -0.15
16 -0.15
18 -0.15
19 -0.15
2 -0.87
20 -0.15
21 -0.15
22 0.14
23 0.07
24 -0.07
25 -0.18
3 0.3
37 0.4
38 0.15
39 0.15
4 -0.71
40 0.15
41 0.15
42 0.15
43 0.15
44 0.15
45 0.15
46 0.27
47 0.18
5 0.37
7 0.27
9 0.27

> <PUBCHEM_EFFECTIVE_ROTOR_COUNT>
5.2

> <PUBCHEM_PHARMACOPHORE_FEATURES>
10
1 1 cation
1 2 cation
1 2 donor
1 25 hydrophobe
1 3 donor
1 4 acceptor
5 3 4 17 18 22 rings
6 1 5 6 7 8 9 rings
6 11 13 14 17 18 19 rings
6 12 15 16 20 21 23 rings

> <PUBCHEM_HEAVY_ATOM_COUNT>
25

> <PUBCHEM_ATOM_DEF_STEREO_COUNT>
1

> <PUBCHEM_ATOM_UDEF_STEREO_COUNT>
0

> <PUBCHEM_BOND_DEF_STEREO_COUNT>
0

> <PUBCHEM_BOND_UDEF_STEREO_COUNT>
0

> <PUBCHEM_ISOTOPIC_ATOM_COUNT>
0

> <PUBCHEM_COMPONENT_COUNT>
1

> <PUBCHEM_CACTVS_TAUTO_COUNT>
2

> <PUBCHEM_CONFORMER_ID>
02A8886200000001

> <PUBCHEM_MMFF94_ENERGY>
57.372

> <PUBCHEM_FEATURE_SELFOVERLAP>
50.837

> <PUBCHEM_SHAPE_FINGERPRINT>
10764073 3 17754212754800035617
107951 10 16595932066440628377
10940486 97 17829625967830649734
1100329 8 13800017792685247260
11014199 57 18411423933520717847
11552529 35 17988357062120748592
12156800 1 10723027106346016863
12422481 6 17981635696665529609
12553582 1 18336845137750452545
13122387 1 16177361063415510127
1361 2 17113535373299407699
138480 1 15023302590855176533
14251757 5 17834701304450837950
14659021 117 18193262010550260018
14725015 67 17835517124988039671
14863182 85 17690560110195179529
15110567 62 17403179687018106331
16719943 64 17184192743004962254
17138139 8 16116273971630273295
19930381 70 18122062267663393859
20028762 73 17695357253910135060
20775438 99 17836037409052724541
20775530 9 18412829074994637363
21133410 52 17836914974151367814
21344244 181 17975671923895074949
22113638 7 17981035637508555910
23559900 14 18266730467159141857
4280585 95 18262784238085285648
463206 1 18410577270954413707
5265222 85 17256554928007582420
5309563 4 18195809798061535611
5312544 6 17474103679819396471
550186 72 18407760327335855588
56633871 153 18412273826566470003
613672 6 18338218440848298823
9709674 26 18195523684636248320

> <PUBCHEM_SHAPE_MULTIPOLES>
494.56
8.85
6.81
1.08
2.03
2.16
-0.12
-10
-0.83
0.17
2.19
0.2
0.01
-0.16

> <PUBCHEM_SHAPE_SELFOVERLAP>
1074.443

> <PUBCHEM_SHAPE_VOLUME>
268.4

> <PUBCHEM_COORDINATE_TYPE>
2
5
10

$$$$
44599395
  -OEChem-05102415113D

 47 50  0     1  0  0  0  0  0999 V2000
    1.4002   -2.6138    0.1081 N   0  0  1  0  0  0  0  0  0  0  0  0
   -2.2752   -2.0928   -0.3120 N   0  0  0  0  0  0  0  0  0  0  0  0
   -3.8776    3.1390   -0.0281 N   0  0  0  0  0  0  0  0  0  0  0  0
   -2.9297    3.7298    0.7183 N   0  0  0  0  0  0  0  0  0  0  0  0
   -1.0628   -2.5281    0.3476 C   0  0  1  0  0  0  0  0  0  0  0  0
   -1.1106   -4.0397    0.5697 C   0  0  0  0  0  0  0  0  0  0  0  0
    0.1515   -2.1337   -0.5019 C   0  0  0  0  0  0  0  0  0  0  0  0
    0.2200   -4.5362    1.1248 C   0  0  0  0  0  0  0  0  0  0  0  0
    1.3913   -4.0759    0.2556 C   0  0  0  0  0  0  0  0  0  0  0  0
    2.5539   -2.1864   -0.6829 C   0  0  0  0  0  0  0  0  0  0  0  0
   -2.7377   -0.7889   -0.2811 C   0  0  0  0  0  0  0  0  0  0  0  0
    2.8776   -0.7326   -0.4622 C   0  0  0  0  0  0  0  0  0  0  0  0
   -2.0113    0.1821    0.4196 C   0  0  0  0  0  0  0  0  0  0  0  0
   -3.9195   -0.4596   -0.9476 C   0  0  0  0  0  0  0  0  0  0  0  0
    2.8792    0.1530   -1.5401 C   0  0  0  0  0  0  0  0  0  0  0  0
    3.1757   -0.2714    0.8200 C   0  0  0  0  0  0  0  0  0  0  0  0
   -2.4976    1.5000    0.4387 C   0  0  0  0  0  0  0  0  0  0  0  0
   -3.6770    1.8006   -0.2334 C   0  0  0  0  0  0  0  0  0  0  0  0
   -4.4163    0.8478   -0.9378 C   0  0  0  0  0  0  0  0  0  0  0  0
    3.1789    1.4997   -1.3355 C   0  0  0  0  0  0  0  0  0  0  0  0
    3.4756    1.0754    1.0244 C   0  0  0  0  0  0  0  0  0  0  0  0
   -2.0919    2.7296    1.0005 C   0  0  0  0  0  0  0  0  0  0  0  0
    3.4769    1.9610   -0.0532 C   0  0  0  0  0  0  0  0  0  0  0  0
    3.7841    3.3407    0.1562 C   0  0  0  0  0  0  0  0  0  0  0  0
    4.0424    4.5001    0.3321 C   0  0  0  0  0  0  0  0  0  0  0  0
   -0.9835   -2.0831    1.3483 H   0  0  0  0  0  0  0  0  0  0  0  0
   -1.9244   -4.3001    1.2571 H   0  0  0  0  0  0  0  0  0  0  0  0
   -1.3230   -4.5561   -0.3758 H   0  0  0  0  0  0  0  0  0  0  0  0
    0.1878   -1.0459   -0.6158 H   0  0  0  0  0  0  0  0  0  0  0  0
    0.0392   -2.5421   -1.5169 H   0  0  0  0  0  0  0  0  0  0  0  0
    0.3521   -4.1627    2.1482 H   0  0  0  0  0  0  0  0  0  0  0  0
    0.2104   -5.6304    1.1831 H   0  0  0  0  0  0  0  0  0  0  0  0
    2.3188   -4.4083    0.7377 H   0  0  0  0  0  0  0  0  0  0  0  0
    1.3389   -4.5665   -0.7254 H   0  0  0  0  0  0  0  0  0  0  0  0
    3.4519   -2.7433   -0.3804 H   0  0  0  0  0  0  0  0  0  0  0  0
    2.4129   -2.4091   -1.7491 H   0  0  0  0  0  0  0  0  0  0  0  0
   -2.7782   -2.7584   -0.8888 H   0  0  0  0  0  0  0  0  0  0  0  0
   -1.0947   -0.0200    0.9594 H   0  0  0  0  0  0  0  0  0  0  0  0
   -4.4754   -1.2228   -1.4887 H   0  0  0  0  0  0  0  0  0  0  0  0
    2.6474   -0.1922   -2.5441 H   0  0  0  0  0  0  0  0  0  0  0  0
    3.1837   -0.9504    1.6686 H   0  0  0  0  0  0  0  0  0  0  0  0
   -5.3339    1.1055   -1.4547 H   0  0  0  0  0  0  0  0  0  0  0  0
    3.1756    2.1778   -2.1856 H   0  0  0  0  0  0  0  0  0  0  0  0
    3.7069    1.4195    2.0297 H   0  0  0  0  0  0  0  0  0  0  0  0
   -1.2192    2.9366    1.6038 H   0  0  0  0  0  0  0  0  0  0  0  0
   -4.6412    3.7092   -0.3698 H   0  0  0  0  0  0  0  0  0  0  0  0
    4.2714    5.5284    0.4880 H   0  0  0  0  0  0  0  0  0  0  0  0
  1  7  1  0  0  0  0
  1  9  1  0  0  0  0
  1 10  1  0  0  0  0
  2  5  1  0  0  0  0
  2 11  1  0  0  0  0
  2 37  1  0  0  0  0
  3  4  1  0  0  0  0
  3 18  1  0  0  0  0
  3 46  1  0  0  0  0
  4 22  2  0  0  0  0
  5  6  1  0  0  0  0
  5  7  1  0  0  0  0
  5 26  1  0  0  0  0
  6  8  1  0  0  0  0
  6 27  1  0  0  0  0
  6 28  1  0  0  0  0
  7 29  1  0  0  0  0
  7 30  1  0  0  0  0
  8  9  1  0  0  0  0
  8 31  1  0  0  0  0
  8 32  1  0  0  0  0
  9 33  1  0  0  0  0
  9 34  1  0  0  0  0
 10 12  1  0  0  0  0
 10 35  1  0  0  0  0
 10 36  1  0  0  0  0
 11 13  2  0  0  0  0
 11 14  1  0  0  0  0
 12 15  2  0  0  0  0
 12 16  1  0  0  0  0
 13 17  1  0  0  0  0
 13 38  1  0  0  0  0
 14 19  2  0  0  0  0
 14 39  1  0  0  0  0
 15 20  1  0  0  0  0
 15 40  1  0  0  0  0
 16 21  2  0  0  0  0
 16 41  1  0  0  0  0
 17 18  2  0  0  0  0
 17 22  1  0  0  0  0
 18 19  1  0  0  0  0
 19 42  1  0  0  0  0
 20 23  2  0  0  0  0
 20 43  1  0  0  0  0
 21 23  1  0  0  0  0
 21 44  1  0  0  0  0
 22 45  1  0  0  0  0
 23 24  1  0  0  0  0
 24 25  3  0  0  0  0
 25 47  1  0  0  0  0
M  END
> <PUBCHEM_COMPOUND_CID>
44599395

> <PUBCHEM_CONFORMER_RMSD>
0.8

> <PUBCHEM_CONFORMER_DIVERSEORDER>
1
54
60
80
35
29
44
57
46
16
14
5
81
47
43
95
64
84
87
98
70
49
74
100
63
36
10
97
86
62
52
90
99
18
53
39
78
15
83
48
22
72
55
25
31
67
66
24
19
38
91
51
79
88
34
37
71
85
96
65
20
58
3
68
59
69
89
50
32
92
42
7
73
13
12
4
11
82
61
75
9
93
77
2
76
8
56
6
33
28
45
23
30
17
41
94
21
40
27
26

> <PUBCHEM_MMFF94_PARTIAL_CHARGES>
33
1 -0.81
10 0.41
11 0.1
12 -0.14
13 -0.15
14 -0.15
15 -0.15
16 -0.15
18 -0.15
19 -0.15
2 -0.87
20 -0.15
21 -0.15
22 0.14
23 0.07
24 -0.07
25 -0.18
3 0.3
37 0.4
38 0.15
39 0.15
4 -0.71
40 0.15
41 0.15
42 0.15
43 0.15
44 0.15
45 0.15
46 0.27
47 0.18
5 0.37
7 0.27
9 0.27

> <PUBCHEM_EFFECTIVE_ROTOR_COUNT>
5.2

> <PUBCHEM_PHARMACOPHORE_FEATURES>
10
1 1 cation
1 2 cation
1 2 donor
1 25 hydrophobe
1 3 donor
1 4 acceptor
5 3 4 17 18 22 rings
6 1 5 6 7 8 9 rings
6 11 13 14 17 18 19 rings
6 12 15 16 20 21 23 rings

> <PUBCHEM_HEAVY_ATOM_COUNT>
25

> <PUBCHEM_ATOM_DEF_STEREO_COUNT>
1

> <PUBCHEM_ATOM_UDEF_STEREO_COUNT>
0

> <PUBCHEM_BOND_DEF_STEREO_COUNT>
0

> <PUBCHEM_BOND_UDEF_STEREO_COUNT>
0

> <PUBCHEM_ISOTOPIC_ATOM_COUNT>
0

> <PUBCHEM_COMPONENT_COUNT>
1

> <PUBCHEM_CACTVS_TAUTO_COUNT>
2

> <PUBCHEM_CONFORMER_ID>
02A8886300000001

> <PUBCHEM_MMFF94_ENERGY>
57.3299

> <PUBCHEM_FEATURE_SELFOVERLAP>
50.837

> <PUBCHEM_SHAPE_FINGERPRINT>
100830 39 17906452487576051496
10439779 11 18266166258865069458
10498660 4 18196094558556001756
10670039 82 17615704259676550420
10675989 125 18339349782748347901
11059048 146 18341068344901987904
11370993 70 18410005559230889060
12156800 1 11878012656255529690
12788726 201 17827644973683728650
12925494 130 17690565187416710105
13122387 1 16177641434569801448
13402501 40 17622447559476547912
13561361 72 16901575932438929248
13583140 156 17684953314432456691
13590594 115 17185037163592550538
13617811 41 18339061754215981093
138480 1 17833548990283647074
13965767 371 17895460497490176982
14251764 38 18412822508248195372
14466204 15 18265888056774588610
14468879 13 18261116317553026641
14790565 3 18270687442536987929
17980427 23 17479707465600854983
18681886 176 17836635341172990379
19930381 70 18337388223912776449
20567600 299 17764021372369317369
21344244 78 16673016567806469171
21860390 5 17766840528889506183
22113638 7 17476637577385084425
22749437 52 18409728452135698228
23558518 356 18340483370519686047
23559900 14 18201153244078496532
3117164 225 18263907999900073464
345986 75 16236455475523709379
469060 322 17400381421093104010
474 4 18117283553816038447
50150288 127 16340093586110475928
5048184 11 18337964406338644620
550186 7 17693958679768272500
6328613 192 18334297579037949494
6371009 1 18266156422967370410
7808743 9 17906169904080202584
84936 182 18340204064221794139
9981440 41 18336539503640815851

> <PUBCHEM_SHAPE_MULTIPOLES>
494.56
8.79
6.8
1.12
2.13
2.16
0.15
-10.05
1.19
-0.15
-2.2
0.34
0.01
0.29

> <PUBCHEM_SHAPE_SELFOVERLAP>
1074.555

> <PUBCHEM_SHAPE_VOLUME>
268.3

> <PUBCHEM_COORDINATE_TYPE>
2
5
10

$$$$
59799790
  -OEChem-05102415113D

 48 51  0     1  0  0  0  0  0999 V2000
   -2.2532    1.8112    0.1034 N   0  0  1  0  0  0  0  0  0  0  0  0
    1.3967    2.4707   -0.3439 N   0  0  0  0  0  0  0  0  0  0  0  0
    4.5707   -1.9824   -0.0037 N   0  0  0  0  0  0  0  0  0  0  0  0
    3.8614   -2.8303    0.7596 N   0  0  0  0  0  0  0  0  0  0  0  0
    0.1118    2.5114    0.3209 C   0  0  1  0  0  0  0  0  0  0  0  0
   -0.3191    3.9641    0.5219 C   0  0  0  0  0  0  0  0  0  0  0  0
   -0.9196    1.7403   -0.5117 C   0  0  0  0  0  0  0  0  0  0  0  0
   -1.7359    4.0239    1.0826 C   0  0  0  0  0  0  0  0  0  0  0  0
   -2.7058    3.2036    0.2307 C   0  0  0  0  0  0  0  0  0  0  0  0
   -3.2165    1.0289   -0.6709 C   0  0  0  0  0  0  0  0  0  0  0  0
   -3.0634   -0.4490   -0.4274 C   0  0  0  0  0  0  0  0  0  0  0  0
    2.2475    1.3802   -0.2997 C   0  0  0  0  0  0  0  0  0  0  0  0
    1.8681    0.2409    0.4211 C   0  0  0  0  0  0  0  0  0  0  0  0
    3.4697    1.4303   -0.9726 C   0  0  0  0  0  0  0  0  0  0  0  0
   -2.7902   -1.3065   -1.4931 C   0  0  0  0  0  0  0  0  0  0  0  0
   -3.1977   -0.9609    0.8632 C   0  0  0  0  0  0  0  0  0  0  0  0
    2.7458   -0.8556    0.4536 C   0  0  0  0  0  0  0  0  0  0  0  0
    3.9568   -0.7792   -0.2253 C   0  0  0  0  0  0  0  0  0  0  0  0
    4.3540    0.3469   -0.9495 C   0  0  0  0  0  0  0  0  0  0  0  0
   -2.6513   -2.6760   -1.2681 C   0  0  0  0  0  0  0  0  0  0  0  0
   -3.0588   -2.3304    1.0881 C   0  0  0  0  0  0  0  0  0  0  0  0
   -2.7854   -3.1881    0.0225 C   0  0  0  0  0  0  0  0  0  0  0  0
    2.7518   -2.1413    1.0358 C   0  0  0  0  0  0  0  0  0  0  0  0
   -2.6374   -4.6526    0.2624 C   0  0  0  0  0  0  0  0  0  0  0  0
    0.1818    2.0802    1.3283 H   0  0  0  0  0  0  0  0  0  0  0  0
    0.3738    4.4791    1.1981 H   0  0  0  0  0  0  0  0  0  0  0  0
   -0.2850    4.5061   -0.4325 H   0  0  0  0  0  0  0  0  0  0  0  0
   -0.9467    2.1470   -1.5331 H   0  0  0  0  0  0  0  0  0  0  0  0
   -0.6110    0.6950   -0.6103 H   0  0  0  0  0  0  0  0  0  0  0  0
   -1.7387    3.6442    2.1122 H   0  0  0  0  0  0  0  0  0  0  0  0
   -2.0721    5.0660    1.1258 H   0  0  0  0  0  0  0  0  0  0  0  0
   -3.6886    3.2337    0.7169 H   0  0  0  0  0  0  0  0  0  0  0  0
   -2.8155    3.6700   -0.7572 H   0  0  0  0  0  0  0  0  0  0  0  0
   -3.1578    1.2678   -1.7413 H   0  0  0  0  0  0  0  0  0  0  0  0
   -4.2430    1.2786   -0.3677 H   0  0  0  0  0  0  0  0  0  0  0  0
    1.6611    3.2518   -0.9344 H   0  0  0  0  0  0  0  0  0  0  0  0
    0.9370    0.1518    0.9666 H   0  0  0  0  0  0  0  0  0  0  0  0
    3.7536    2.3212   -1.5292 H   0  0  0  0  0  0  0  0  0  0  0  0
   -2.6817   -0.9214   -2.5035 H   0  0  0  0  0  0  0  0  0  0  0  0
   -3.4159   -0.3059    1.7026 H   0  0  0  0  0  0  0  0  0  0  0  0
    5.3037    0.3839   -1.4714 H   0  0  0  0  0  0  0  0  0  0  0  0
   -2.4363   -3.3338   -2.1061 H   0  0  0  0  0  0  0  0  0  0  0  0
   -3.1650   -2.7172    2.0981 H   0  0  0  0  0  0  0  0  0  0  0  0
    1.9919   -2.6037    1.6500 H   0  0  0  0  0  0  0  0  0  0  0  0
    5.4737   -2.2877   -0.3447 H   0  0  0  0  0  0  0  0  0  0  0  0
   -1.5913   -4.8942    0.4754 H   0  0  0  0  0  0  0  0  0  0  0  0
   -3.2521   -4.9787    1.1083 H   0  0  0  0  0  0  0  0  0  0  0  0
   -2.9607   -5.2307   -0.6100 H   0  0  0  0  0  0  0  0  0  0  0  0
  1  7  1  0  0  0  0
  1  9  1  0  0  0  0
  1 10  1  0  0  0  0
  2  5  1  0  0  0  0
  2 12  1  0  0  0  0
  2 36  1  0  0  0  0
  3  4  1  0  0  0  0
  3 18  1  0  0  0  0
  3 45  1  0  0  0  0
  4 23  2  0  0  0  0
  5  6  1  0  0  0  0
  5  7  1  0  0  0  0
  5 25  1  0  0  0  0
  6  8  1  0  0  0  0
  6 26  1  0  0  0  0
  6 27  1  0  0  0  0
  7 28  1  0  0  0  0
  7 29  1  0  0  0  0
  8  9  1  0  0  0  0
  8 30  1  0  0  0  0
  8 31  1  0  0  0  0
  9 32  1  0  0  0  0
  9 33  1  0  0  0  0
 10 11  1  0  0  0  0
 10 34  1  0  0  0  0
 10 35  1  0  0  0  0
 11 15  2  0  0  0  0
 11 16  1  0  0  0  0
 12 13  2  0  0  0  0
 12 14  1  0  0  0  0
 13 17  1  0  0  0  0
 13 37  1  0  0  0  0
 14 19  2  0  0  0  0
 14 38  1  0  0  0  0
 15 20  1  0  0  0  0
 15 39  1  0  0  0  0
 16 21  2  0  0  0  0
 16 40  1  0  0  0  0
 17 18  2  0  0  0  0
 17 23  1  0  0  0  0
 18 19  1  0  0  0  0
 19 41  1  0  0  0  0
 20 22  2  0  0  0  0
 20 42  1  0  0  0  0
 21 22  1  0  0  0  0
 21 43  1  0  0  0  0
 22 24  1  0  0  0  0
 23 44  1  0  0  0  0
 24 46  1  0  0  0  0
 24 47  1  0  0  0  0
 24 48  1  0  0  0  0
M  END
> <PUBCHEM_COMPOUND_CID>
59799790

> <PUBCHEM_CONFORMER_RMSD>
0.8

> <PUBCHEM_CONFORMER_DIVERSEORDER>
1
3
72
44
80
92
26
35
34
58
41
7
90
95
8
57
93
100
19
5
65
15
43
73
67
85
29
96
40
68
79
74
13
23
61
102
60
16
82
78
94
46
32
38
53
42
11
99
98
6
27
55
24
21
101
75
64
76
47
71
87
69
88
66
14
28
86
83
33
62
30
77
63
70
2
4
50
45
39
9
54
48
52
51
97
49
20
18
56
59
22
17
25
37
31
81
91
12
89
10
36
84

> <PUBCHEM_MMFF94_PARTIAL_CHARGES>
31
1 -0.81
10 0.41
11 -0.14
12 0.1
13 -0.15
14 -0.15
15 -0.15
16 -0.15
18 -0.15
19 -0.15
2 -0.87
20 -0.15
21 -0.15
22 -0.14
23 0.14
24 0.14
3 0.3
36 0.4
37 0.15
38 0.15
39 0.15
4 -0.71
40 0.15
41 0.15
42 0.15
43 0.15
44 0.15
45 0.27
5 0.37
7 0.27
9 0.27

> <PUBCHEM_EFFECTIVE_ROTOR_COUNT>
5.2

> <PUBCHEM_PHARMACOPHORE_FEATURES>
9
1 1 cation
1 2 cation
1 2 donor
1 3 donor
1 4 acceptor
5 3 4 17 18 23 rings
6 1 5 6 7 8 9 rings
6 11 15 16 20 21 22 rings
6 12 13 14 17 18 19 rings

> <PUBCHEM_HEAVY_ATOM_COUNT>
24

> <PUBCHEM_ATOM_DEF_STEREO_COUNT>
1

> <PUBCHEM_ATOM_UDEF_STEREO_COUNT>
0

> <PUBCHEM_BOND_DEF_STEREO_COUNT>
0

> <PUBCHEM_BOND_UDEF_STEREO_COUNT>
0

> <PUBCHEM_ISOTOPIC_ATOM_COUNT>
0

> <PUBCHEM_COMPONENT_COUNT>
1

> <PUBCHEM_CACTVS_TAUTO_COUNT>
2

> <PUBCHEM_CONFORMER_ID>
039078EE00000001

> <PUBCHEM_MMFF94_ENERGY>
58.5885

> <PUBCHEM_FEATURE_SELFOVERLAP>
45.763

> <PUBCHEM_SHAPE_FINGERPRINT>
10616163 171 18339646633532989142
114674 6 17473259259220778067
11578080 2 17917417740249247648
12156800 1 12528560327483970883
12553582 1 18340204206124136619
12788726 201 18271807870022388557
13122387 1 17040908768444591498
13533116 47 17548985907114539355
13631057 29 18338802320552017084
138480 1 15961181667257357673
14081887 123 18270099280492257408
14251757 5 18409732828775873189
14279260 333 18042971978744317498
14863182 85 16966608746675764221
14866123 147 18341051801410150169
14916288 52 18410290345706629475
152267 14 18341042025484991862
15721738 15 17975657823417481695
16120349 306 17691110544386332945
16719943 64 17978508633243948066
17809404 112 17981008072376710783
17859628 97 17977664204356341953
19930381 70 17616813675066120907
20291156 8 18339364183419445149
20775438 99 17333883980501063343
20775530 9 18191301783102283375
21133410 38 15892243022441525634
21315759 227 18043800107713206174
21315764 21 16954186077499625279
21634736 98 18334017160053507156
229767 44 17471274172734974666
23379529 103 18269851852032837246
23728640 28 18197215845842366721
3729539 64 18263624252748896527
3737641 26 18193291899042822482
392239 28 18269270339183276864
463206 1 18119819259183585579
5309563 4 17979077416016398855
7097593 13 17981619465851741649
86090 222 16885827584323035299
9795274 37 18190450747964216939

> <PUBCHEM_SHAPE_MULTIPOLES>
473.98
8.56
6.06
1.14
5.61
1.24
-0.11
-7.02
-0.95
-4.04
1.7
-0.34
-0.24
-1.04

> <PUBCHEM_SHAPE_SELFOVERLAP>
1028.102

> <PUBCHEM_SHAPE_VOLUME>
258.9

> <PUBCHEM_COORDINATE_TYPE>
2
5
10

$$$$
44599069
  -OEChem-05102415113D

 49 52  0     1  0  0  0  0  0999 V2000
    3.5482    3.5458   -0.0914 O   0  0  0  0  0  0  0  0  0  0  0  0
    1.5645   -2.4805    0.1036 N   0  0  1  0  0  0  0  0  0  0  0  0
   -2.1455   -2.2085   -0.2391 N   0  0  0  0  0  0  0  0  0  0  0  0
   -4.0754    2.9167   -0.0707 N   0  0  0  0  0  0  0  0  0  0  0  0
   -3.1505    3.5899    0.6337 N   0  0  0  0  0  0  0  0  0  0  0  0
   -0.8926   -2.5446    0.4024 C   0  0  1  0  0  0  0  0  0  0  0  0
   -0.8376   -4.0485    0.6705 C   0  0  0  0  0  0  0  0  0  0  0  0
    0.2736   -2.1004   -0.4888 C   0  0  0  0  0  0  0  0  0  0  0  0
    0.5348   -4.4415    1.2064 C   0  0  0  0  0  0  0  0  0  0  0  0
    1.6535   -3.9348    0.2947 C   0  0  0  0  0  0  0  0  0  0  0  0
    2.6696   -2.0053   -0.7286 C   0  0  0  0  0  0  0  0  0  0  0  0
   -2.6905   -0.9364   -0.2354 C   0  0  0  0  0  0  0  0  0  0  0  0
    2.9038   -0.5276   -0.5595 C   0  0  0  0  0  0  0  0  0  0  0  0
   -2.0122    0.1004    0.4176 C   0  0  0  0  0  0  0  0  0  0  0  0
   -3.9061   -0.7042   -0.8814 C   0  0  0  0  0  0  0  0  0  0  0  0
    2.8234    0.3226   -1.6624 C   0  0  0  0  0  0  0  0  0  0  0  0
    3.2008   -0.0088    0.7008 C   0  0  0  0  0  0  0  0  0  0  0  0
   -2.5819    1.3845    0.4097 C   0  0  0  0  0  0  0  0  0  0  0  0
   -3.7936    1.5880   -0.2411 C   0  0  0  0  0  0  0  0  0  0  0  0
   -4.4859    0.5685   -0.8980 C   0  0  0  0  0  0  0  0  0  0  0  0
    3.0402    1.6914   -1.5052 C   0  0  0  0  0  0  0  0  0  0  0  0
    3.4178    1.3600    0.8581 C   0  0  0  0  0  0  0  0  0  0  0  0
    3.3374    2.2101   -0.2448 C   0  0  0  0  0  0  0  0  0  0  0  0
   -2.2435    2.6545    0.9243 C   0  0  0  0  0  0  0  0  0  0  0  0
    3.8478    4.0088    1.2247 C   0  0  0  0  0  0  0  0  0  0  0  0
   -0.8190   -2.0644    1.3871 H   0  0  0  0  0  0  0  0  0  0  0  0
   -1.6167   -4.3387    1.3856 H   0  0  0  0  0  0  0  0  0  0  0  0
   -1.0381   -4.6068   -0.2535 H   0  0  0  0  0  0  0  0  0  0  0  0
    0.1644   -2.5467   -1.4880 H   0  0  0  0  0  0  0  0  0  0  0  0
    0.2370   -1.0166   -0.6359 H   0  0  0  0  0  0  0  0  0  0  0  0
    0.6663   -4.0286    2.2147 H   0  0  0  0  0  0  0  0  0  0  0  0
    0.5972   -5.5318    1.2975 H   0  0  0  0  0  0  0  0  0  0  0  0
    1.6101   -4.4583   -0.6696 H   0  0  0  0  0  0  0  0  0  0  0  0
    2.6114   -4.1921    0.7629 H   0  0  0  0  0  0  0  0  0  0  0  0
    3.6085   -2.4941   -0.4324 H   0  0  0  0  0  0  0  0  0  0  0  0
    2.5185   -2.2697   -1.7838 H   0  0  0  0  0  0  0  0  0  0  0  0
   -2.6178   -2.9226   -0.7830 H   0  0  0  0  0  0  0  0  0  0  0  0
   -1.0721   -0.0258    0.9399 H   0  0  0  0  0  0  0  0  0  0  0  0
   -4.4240   -1.5179   -1.3854 H   0  0  0  0  0  0  0  0  0  0  0  0
    2.5912   -0.0674   -2.6498 H   0  0  0  0  0  0  0  0  0  0  0  0
    3.2718   -0.6602    1.5680 H   0  0  0  0  0  0  0  0  0  0  0  0
   -5.4300    0.7508   -1.3991 H   0  0  0  0  0  0  0  0  0  0  0  0
    2.9756    2.3488   -2.3679 H   0  0  0  0  0  0  0  0  0  0  0  0
    3.6451    1.6956    1.8641 H   0  0  0  0  0  0  0  0  0  0  0  0
   -1.3723    2.9356    1.4990 H   0  0  0  0  0  0  0  0  0  0  0  0
   -4.8818    3.4261   -0.4100 H   0  0  0  0  0  0  0  0  0  0  0  0
    3.0144    3.8315    1.9130 H   0  0  0  0  0  0  0  0  0  0  0  0
    4.7888    3.5878    1.5949 H   0  0  0  0  0  0  0  0  0  0  0  0
    3.9855    5.0932    1.1623 H   0  0  0  0  0  0  0  0  0  0  0  0
  1 23  1  0  0  0  0
  1 25  1  0  0  0  0
  2  8  1  0  0  0  0
  2 10  1  0  0  0  0
  2 11  1  0  0  0  0
  3  6  1  0  0  0  0
  3 12  1  0  0  0  0
  3 37  1  0  0  0  0
  4  5  1  0  0  0  0
  4 19  1  0  0  0  0
  4 46  1  0  0  0  0
  5 24  2  0  0  0  0
  6  7  1  0  0  0  0
  6  8  1  0  0  0  0
  6 26  1  0  0  0  0
  7  9  1  0  0  0  0
  7 27  1  0  0  0  0
  7 28  1  0  0  0  0
  8 29  1  0  0  0  0
  8 30  1  0  0  0  0
  9 10  1  0  0  0  0
  9 31  1  0  0  0  0
  9 32  1  0  0  0  0
 10 33  1  0  0  0  0
 10 34  1  0  0  0  0
 11 13  1  0  0  0  0
 11 35  1  0  0  0  0
 11 36  1  0  0  0  0
 12 14  2  0  0  0  0
 12 15  1  0  0  0  0
 13 16  2  0  0  0  0
 13 17  1  0  0  0  0
 14 18  1  0  0  0  0
 14 38  1  0  0  0  0
 15 20  2  0  0  0  0
 15 39  1  0  0  0  0
 16 21  1  0  0  0  0
 16 40  1  0  0  0  0
 17 22  2  0  0  0  0
 17 41  1  0  0  0  0
 18 19  2  0  0  0  0
 18 24  1  0  0  0  0
 19 20  1  0  0  0  0
 20 42  1  0  0  0  0
 21 23  2  0  0  0  0
 21 43  1  0  0  0  0
 22 23  1  0  0  0  0
 22 44  1  0  0  0  0
 24 45  1  0  0  0  0
 25 47  1  0  0  0  0
 25 48  1  0  0  0  0
 25 49  1  0  0  0  0
M  END
> <PUBCHEM_COMPOUND_CID>
44599069

> <PUBCHEM_CONFORMER_RMSD>
0.8

> <PUBCHEM_CONFORMER_DIVERSEORDER>
1
110
27
20
75
13
16
60
85
125
116
36
107
113
55
52
22
93
30
39
112
25
63
97
133
66
23
127
121
90
82
19
92
128
120
47
104
135
53
115
126
102
45
29
71
54
58
78
131
81
6
96
119
109
48
80
100
62
65
43
37
111
88
130
28
74
18
11
83
84
108
59
67
31
129
99
76
38
12
56
61
5
123
35
95
4
114
117
64
101
134
42
105
68
46
124
3
73
50
44
106
10
98
89
41
34
9
72
2
132
91
51
57
87
40
33
49
77
24
69
86
118
15
17
32
94
21
79
122
103
70
8
26
7
14

> <PUBCHEM_MMFF94_PARTIAL_CHARGES>
32
1 -0.36
10 0.27
11 0.41
12 0.1
13 -0.14
14 -0.15
15 -0.15
16 -0.15
17 -0.15
19 -0.15
2 -0.81
20 -0.15
21 -0.15
22 -0.15
23 0.08
24 0.14
25 0.28
3 -0.87
37 0.4
38 0.15
39 0.15
4 0.3
40 0.15
41 0.15
42 0.15
43 0.15
44 0.15
45 0.15
46 0.27
5 -0.71
6 0.37
8 0.27

> <PUBCHEM_EFFECTIVE_ROTOR_COUNT>
6.2

> <PUBCHEM_PHARMACOPHORE_FEATURES>
10
1 1 acceptor
1 2 cation
1 3 cation
1 3 donor
1 4 donor
1 5 acceptor
5 4 5 18 19 24 rings
6 12 14 15 18 19 20 rings
6 13 16 17 21 22 23 rings
6 2 6 7 8 9 10 rings

> <PUBCHEM_HEAVY_ATOM_COUNT>
25

> <PUBCHEM_ATOM_DEF_STEREO_COUNT>
1

> <PUBCHEM_ATOM_UDEF_STEREO_COUNT>
0

> <PUBCHEM_BOND_DEF_STEREO_COUNT>
0

> <PUBCHEM_BOND_UDEF_STEREO_COUNT>
0

> <PUBCHEM_ISOTOPIC_ATOM_COUNT>
0

> <PUBCHEM_COMPONENT_COUNT>
1

> <PUBCHEM_CACTVS_TAUTO_COUNT>
2

> <PUBCHEM_CONFORMER_ID>
02A8871D00000001

> <PUBCHEM_MMFF94_ENERGY>
70.3895

> <PUBCHEM_FEATURE_SELFOVERLAP>
50.837

> <PUBCHEM_SHAPE_FINGERPRINT>
100830 39 17834675277572068072
10439779 11 18266166258801778946
10498660 4 18196374938215831654
10670039 82 17543366294426256940
10675989 125 18340195320096128089
11059048 146 18266480796067442860
11370993 70 18410006675938307692
12156800 1 12310926680884756024
12173636 292 18336828709716713095
12788726 201 17610065933340900386
12925494 130 17834118542283337121
13122387 1 16321475160506382308
13402501 40 17695628841444706280
13583140 156 17684108898102789339
13590594 115 17256814395076710218
13617811 41 18338781391667390189
138480 1 17833267523875849962
13965767 371 17968078851032322454
14251764 38 18413103978782161204
14466204 15 18265325119716579690
14468879 13 18261116326158792001
14790565 3 18199474264897234161
17980427 23 17623542295344011423
18681886 176 17908974418756451563
19930381 70 18337107861353674961
20567600 299 18050002194938375021
21344244 78 16745354545883629307
21860390 5 17910393879387377903
22113638 7 17548132230096409881
22749437 52 18409448093861079549
23558518 356 18411417272316806411
23559900 14 18200871768975055468
3117164 225 18192693744165668608
345986 75 16380569581193921146
469060 322 17832726929338319227
474 4 18116439146044702655
5048184 11 18337403668256464052
550186 7 17693957584541114420
6328613 192 18261678156033058124
6371009 1 18337933650103834738
84936 182 18339642230912351515
9981440 41 18335976575151649003

> <PUBCHEM_SHAPE_MULTIPOLES>
488.69
8.71
6.46
1.2
1.74
2.42
-0.17
-9.34
-1.09
-1.65
2.63
-0.71
-0.2
0.21

> <PUBCHEM_SHAPE_SELFOVERLAP>
1058.61

> <PUBCHEM_SHAPE_VOLUME>
269.3

> <PUBCHEM_COORDINATE_TYPE>
2
5
10

$$$$
59799769
  -OEChem-05102415113D

 45 48  0     1  0  0  0  0  0999 V2000
   -3.6182   -2.3935    2.3047 Cl  0  0  0  0  0  0  0  0  0  0  0  0
   -3.1676   -4.3291   -0.2492 Cl  0  0  0  0  0  0  0  0  0  0  0  0
   -1.8040    2.2401    0.0178 N   0  0  1  0  0  0  0  0  0  0  0  0
    1.9215    2.3492   -0.2365 N   0  0  0  0  0  0  0  0  0  0  0  0
    4.3604   -2.5524   -0.0193 N   0  0  0  0  0  0  0  0  0  0  0  0
    3.4927   -3.3178    0.6633 N   0  0  0  0  0  0  0  0  0  0  0  0
    0.6259    2.5544    0.3747 C   0  0  1  0  0  0  0  0  0  0  0  0
    0.4112    4.0443    0.6405 C   0  0  0  0  0  0  0  0  0  0  0  0
   -0.4674    1.9949   -0.5436 C   0  0  0  0  0  0  0  0  0  0  0  0
   -1.0065    4.2941    1.1434 C   0  0  0  0  0  0  0  0  0  0  0  0
   -2.0456    3.6774    0.2057 C   0  0  0  0  0  0  0  0  0  0  0  0
   -2.8347    1.6560   -0.8402 C   0  0  0  0  0  0  0  0  0  0  0  0
    2.5933    1.1395   -0.2193 C   0  0  0  0  0  0  0  0  0  0  0  0
   -2.9206    0.1618   -0.6758 C   0  0  0  0  0  0  0  0  0  0  0  0
    2.0092    0.0377    0.4181 C   0  0  0  0  0  0  0  0  0  0  0  0
    3.8413    1.0339   -0.8360 C   0  0  0  0  0  0  0  0  0  0  0  0
   -3.1937   -0.3880    0.5766 C   0  0  0  0  0  0  0  0  0  0  0  0
   -2.7275   -0.6726   -1.7768 C   0  0  0  0  0  0  0  0  0  0  0  0
    2.7072   -1.1816    0.4245 C   0  0  0  0  0  0  0  0  0  0  0  0
    3.9484   -1.2591   -0.1971 C   0  0  0  0  0  0  0  0  0  0  0  0
    4.5483   -0.1730   -0.8380 C   0  0  0  0  0  0  0  0  0  0  0  0
   -3.2739   -1.7722    0.7283 C   0  0  0  0  0  0  0  0  0  0  0  0
   -2.8073   -2.0569   -1.6250 C   0  0  0  0  0  0  0  0  0  0  0  0
    2.4883   -2.4804    0.9317 C   0  0  0  0  0  0  0  0  0  0  0  0
   -3.0806   -2.6068   -0.3725 C   0  0  0  0  0  0  0  0  0  0  0  0
    0.5784    2.0674    1.3577 H   0  0  0  0  0  0  0  0  0  0  0  0
    0.5754    4.6219   -0.2788 H   0  0  0  0  0  0  0  0  0  0  0  0
    1.1394    4.4113    1.3738 H   0  0  0  0  0  0  0  0  0  0  0  0
   -0.3807    2.4518   -1.5402 H   0  0  0  0  0  0  0  0  0  0  0  0
   -0.3167    0.9208   -0.6890 H   0  0  0  0  0  0  0  0  0  0  0  0
   -1.1190    3.8680    2.1485 H   0  0  0  0  0  0  0  0  0  0  0  0
   -1.1821    5.3721    1.2323 H   0  0  0  0  0  0  0  0  0  0  0  0
   -2.0331    4.2043   -0.7576 H   0  0  0  0  0  0  0  0  0  0  0  0
   -3.0357    3.8346    0.6509 H   0  0  0  0  0  0  0  0  0  0  0  0
   -2.6865    1.9366   -1.8917 H   0  0  0  0  0  0  0  0  0  0  0  0
   -3.8254    2.0457   -0.5667 H   0  0  0  0  0  0  0  0  0  0  0  0
    2.3311    3.1088   -0.7695 H   0  0  0  0  0  0  0  0  0  0  0  0
    1.0490    0.0662    0.9179 H   0  0  0  0  0  0  0  0  0  0  0  0
    4.2852    1.8971   -1.3281 H   0  0  0  0  0  0  0  0  0  0  0  0
   -3.3500    0.2651    1.4326 H   0  0  0  0  0  0  0  0  0  0  0  0
   -2.5127   -0.2582   -2.7581 H   0  0  0  0  0  0  0  0  0  0  0  0
    5.5177   -0.2569   -1.3164 H   0  0  0  0  0  0  0  0  0  0  0  0
   -2.6536   -2.6923   -2.4937 H   0  0  0  0  0  0  0  0  0  0  0  0
    1.6368   -2.8500    1.4856 H   0  0  0  0  0  0  0  0  0  0  0  0
    5.2225   -2.9760   -0.3389 H   0  0  0  0  0  0  0  0  0  0  0  0
  1 22  1  0  0  0  0
  2 25  1  0  0  0  0
  3  9  1  0  0  0  0
  3 11  1  0  0  0  0
  3 12  1  0  0  0  0
  4  7  1  0  0  0  0
  4 13  1  0  0  0  0
  4 37  1  0  0  0  0
  5  6  1  0  0  0  0
  5 20  1  0  0  0  0
  5 45  1  0  0  0  0
  6 24  2  0  0  0  0
  7  8  1  0  0  0  0
  7  9  1  0  0  0  0
  7 26  1  0  0  0  0
  8 10  1  0  0  0  0
  8 27  1  0  0  0  0
  8 28  1  0  0  0  0
  9 29  1  0  0  0  0
  9 30  1  0  0  0  0
 10 11  1  0  0  0  0
 10 31  1  0  0  0  0
 10 32  1  0  0  0  0
 11 33  1  0  0  0  0
 11 34  1  0  0  0  0
 12 14  1  0  0  0  0
 12 35  1  0  0  0  0
 12 36  1  0  0  0  0
 13 15  2  0  0  0  0
 13 16  1  0  0  0  0
 14 17  2  0  0  0  0
 14 18  1  0  0  0  0
 15 19  1  0  0  0  0
 15 38  1  0  0  0  0
 16 21  2  0  0  0  0
 16 39  1  0  0  0  0
 17 22  1  0  0  0  0
 17 40  1  0  0  0  0
 18 23  2  0  0  0  0
 18 41  1  0  0  0  0
 19 20  2  0  0  0  0
 19 24  1  0  0  0  0
 20 21  1  0  0  0  0
 21 42  1  0  0  0  0
 22 25  2  0  0  0  0
 23 25  1  0  0  0  0
 23 43  1  0  0  0  0
 24 44  1  0  0  0  0
M  END
> <PUBCHEM_COMPOUND_CID>
59799769

> <PUBCHEM_CONFORMER_RMSD>
0.8

> <PUBCHEM_CONFORMER_DIVERSEORDER>
1
58
221
169
131
63
45
55
162
247
59
232
220
46
103
201
87
241
217
163
227
224
145
212
197
69
179
249
176
90
203
94
157
22
175
216
149
213
167
99
257
81
182
54
133
159
5
91
86
200
208
170
72
210
184
166
33
24
142
231
121
156
245
168
11
28
39
132
219
84
209
158
104
229
189
146
130
193
66
30
75
71
181
177
117
150
10
6
234
215
111
143
199
52
96
160
171
114
136
237
32
126
106
68
152
51
178
18
44
252
62
7
123
95
174
251
21
239
129
140
218
82
183
164
43
83
79
124
80
29
240
108
243
53
230
235
102
134
153
255
38
57
25
238
172
250
23
225
190
70
40
34
207
204
76
253
93
244
107
194
139
128
13
222
226
113
105
155
101
60
122
119
154
8
14
205
248
37
165
236
180
138
36
16
118
116
2
223
141
144
100
211
186
65
47
256
88
112
4
110
202
12
206
48
97
109
64
41
74
254
77
246
49
228
3
148
187
56
198
85
127
233
242
92
98
214
161
196
115
188
89
27
50
147
67
195
191
185
151
35
125
135
19
9
78
20
42
26
31
120
61
173
15
192
73
137
17

> <PUBCHEM_MMFF94_PARTIAL_CHARGES>
31
1 -0.18
11 0.27
12 0.41
13 0.1
14 -0.14
15 -0.15
16 -0.15
17 -0.15
18 -0.15
2 -0.18
20 -0.15
21 -0.15
22 0.18
23 -0.15
24 0.14
25 0.18
3 -0.81
37 0.4
38 0.15
39 0.15
4 -0.87
40 0.15
41 0.15
42 0.15
43 0.15
44 0.15
45 0.27
5 0.3
6 -0.71
7 0.37
9 0.27

> <PUBCHEM_EFFECTIVE_ROTOR_COUNT>
5.2

> <PUBCHEM_PHARMACOPHORE_FEATURES>
9
1 3 cation
1 4 cation
1 4 donor
1 5 donor
1 6 acceptor
5 5 6 19 20 24 rings
6 13 15 16 19 20 21 rings
6 14 17 18 22 23 25 rings
6 3 7 8 9 10 11 rings

> <PUBCHEM_HEAVY_ATOM_COUNT>
25

> <PUBCHEM_ATOM_DEF_STEREO_COUNT>
1

> <PUBCHEM_ATOM_UDEF_STEREO_COUNT>
0

> <PUBCHEM_BOND_DEF_STEREO_COUNT>
0

> <PUBCHEM_BOND_UDEF_STEREO_COUNT>
0

> <PUBCHEM_ISOTOPIC_ATOM_COUNT>
0

> <PUBCHEM_COMPONENT_COUNT>
1

> <PUBCHEM_CACTVS_TAUTO_COUNT>
2

> <PUBCHEM_CONFORMER_ID>
039078D900000001

> <PUBCHEM_MMFF94_ENERGY>
59.0595

> <PUBCHEM_FEATURE_SELFOVERLAP>
45.763

> <PUBCHEM_SHAPE_FINGERPRINT>
10616163 171 18268431226836876828
10928967 22 18269004244014993814
114674 6 17689428708355446587
11578080 2 17774422928720584752
12553582 1 18412539946401886335
12788726 201 18199746934352302197
13122387 1 16681465188862203790
13533116 47 17765157563930904967
1361 2 17113250599661583459
13631057 29 18411420622670638620
138480 1 15457622903741269325
14251757 5 18265053543922002996
14279260 333 17899138218300396250
14863182 85 17326893383854802733
152267 14 18340759403715096366
17809404 112 18051658257123802703
17859628 97 17617094703181577345
19930381 70 17905322189020668003
20291156 8 18411981390115840364
20764821 26 17326057746300800142
20775438 99 17477431777584856071
20775530 9 18188771772407722683
21133410 221 13360580417040080235
21133410 38 16324864534138938323
21315759 227 18040711519505579034
229767 44 17183606707823969210
23379529 103 18198635350030465094
23728640 28 17981884151363747665
3383291 50 18268138761355801795
3729539 64 18263623105955387007
3737641 26 18266192779955240766
463206 1 18264776643075140467
5309563 4 18123471837085364031
7097593 13 17983026827829482409
86090 222 17173498257579781635
9795274 37 18261101998074156114

> <PUBCHEM_SHAPE_MULTIPOLES>
498.3
8.8
6.18
1.4
3.07
3.03
0.17
-8.87
-0.62
-0.97
1.79
-1.46
-0.51
-0.12

> <PUBCHEM_SHAPE_SELFOVERLAP>
1064.39

> <PUBCHEM_SHAPE_VOLUME>
277.6

> <PUBCHEM_COORDINATE_TYPE>
2
5
10

$$$$
44599070
  -OEChem-05102415113D

 45 48  0     1  0  0  0  0  0999 V2000
    2.6297    4.8561    0.2398 Cl  0  0  0  0  0  0  0  0  0  0  0  0
    2.2478   -1.8306    0.0892 N   0  0  1  0  0  0  0  0  0  0  0  0
   -1.4098   -2.4754   -0.3139 N   0  0  0  0  0  0  0  0  0  0  0  0
   -4.5588    1.9951    0.0312 N   0  0  0  0  0  0  0  0  0  0  0  0
   -3.8371    2.8446    0.7810 N   0  0  0  0  0  0  0  0  0  0  0  0
   -0.1180   -2.5179    0.3372 C   0  0  1  0  0  0  0  0  0  0  0  0
    0.3082   -3.9713    0.5432 C   0  0  0  0  0  0  0  0  0  0  0  0
    0.9079   -1.7574   -0.5118 C   0  0  0  0  0  0  0  0  0  0  0  0
    1.7307   -4.0342    1.0887 C   0  0  0  0  0  0  0  0  0  0  0  0
    2.6952   -3.2242    0.2209 C   0  0  0  0  0  0  0  0  0  0  0  0
    3.2063   -1.0581   -0.7008 C   0  0  0  0  0  0  0  0  0  0  0  0
   -2.2549   -1.3805   -0.2676 C   0  0  0  0  0  0  0  0  0  0  0  0
    3.0629    0.4221   -0.4655 C   0  0  0  0  0  0  0  0  0  0  0  0
   -1.8623   -0.2383    0.4413 C   0  0  0  0  0  0  0  0  0  0  0  0
   -3.4846   -1.4292   -0.9268 C   0  0  0  0  0  0  0  0  0  0  0  0
    2.1977    1.1737   -1.2606 C   0  0  0  0  0  0  0  0  0  0  0  0
    3.7948    1.0418    0.5474 C   0  0  0  0  0  0  0  0  0  0  0  0
   -2.7344    0.8627    0.4761 C   0  0  0  0  0  0  0  0  0  0  0  0
   -3.9530    0.7875   -0.1891 C   0  0  0  0  0  0  0  0  0  0  0  0
   -4.3635   -0.3414   -0.9014 C   0  0  0  0  0  0  0  0  0  0  0  0
    2.0646    2.5451   -1.0430 C   0  0  0  0  0  0  0  0  0  0  0  0
    3.6618    2.4131    0.7649 C   0  0  0  0  0  0  0  0  0  0  0  0
   -2.7279    2.1522    1.0498 C   0  0  0  0  0  0  0  0  0  0  0  0
    2.7968    3.1647   -0.0303 C   0  0  0  0  0  0  0  0  0  0  0  0
   -0.1751   -2.0800    1.3426 H   0  0  0  0  0  0  0  0  0  0  0  0
    0.2612   -4.5193   -0.4072 H   0  0  0  0  0  0  0  0  0  0  0  0
   -0.3798   -4.4785    1.2302 H   0  0  0  0  0  0  0  0  0  0  0  0
    0.9199   -2.1638   -1.5334 H   0  0  0  0  0  0  0  0  0  0  0  0
    0.5821   -0.7206   -0.5954 H   0  0  0  0  0  0  0  0  0  0  0  0
    2.0624   -5.0776    1.1352 H   0  0  0  0  0  0  0  0  0  0  0  0
    1.7465   -3.6478    2.1158 H   0  0  0  0  0  0  0  0  0  0  0  0
    3.6829   -3.2563    0.6967 H   0  0  0  0  0  0  0  0  0  0  0  0
    2.7918   -3.6975   -0.7652 H   0  0  0  0  0  0  0  0  0  0  0  0
    4.2343   -1.3302   -0.4230 H   0  0  0  0  0  0  0  0  0  0  0  0
    3.1325   -1.2860   -1.7733 H   0  0  0  0  0  0  0  0  0  0  0  0
   -1.6844   -3.2591   -0.8964 H   0  0  0  0  0  0  0  0  0  0  0  0
   -0.9259   -0.1501    0.9778 H   0  0  0  0  0  0  0  0  0  0  0  0
   -3.7789   -2.3224   -1.4743 H   0  0  0  0  0  0  0  0  0  0  0  0
    1.6347    0.7118   -2.0672 H   0  0  0  0  0  0  0  0  0  0  0  0
    4.4704    0.4674    1.1757 H   0  0  0  0  0  0  0  0  0  0  0  0
   -5.3190   -0.3773   -1.4127 H   0  0  0  0  0  0  0  0  0  0  0  0
    1.3892    3.1187   -1.6726 H   0  0  0  0  0  0  0  0  0  0  0  0
    4.2376    2.8825    1.5584 H   0  0  0  0  0  0  0  0  0  0  0  0
   -1.9591    2.6149    1.6525 H   0  0  0  0  0  0  0  0  0  0  0  0
   -5.4639    2.3025   -0.3020 H   0  0  0  0  0  0  0  0  0  0  0  0
  1 24  1  0  0  0  0
  2  8  1  0  0  0  0
  2 10  1  0  0  0  0
  2 11  1  0  0  0  0
  3  6  1  0  0  0  0
  3 12  1  0  0  0  0
  3 36  1  0  0  0  0
  4  5  1  0  0  0  0
  4 19  1  0  0  0  0
  4 45  1  0  0  0  0
  5 23  2  0  0  0  0
  6  7  1  0  0  0  0
  6  8  1  0  0  0  0
  6 25  1  0  0  0  0
  7  9  1  0  0  0  0
  7 26  1  0  0  0  0
  7 27  1  0  0  0  0
  8 28  1  0  0  0  0
  8 29  1  0  0  0  0
  9 10  1  0  0  0  0
  9 30  1  0  0  0  0
  9 31  1  0  0  0  0
 10 32  1  0  0  0  0
 10 33  1  0  0  0  0
 11 13  1  0  0  0  0
 11 34  1  0  0  0  0
 11 35  1  0  0  0  0
 12 14  2  0  0  0  0
 12 15  1  0  0  0  0
 13 16  2  0  0  0  0
 13 17  1  0  0  0  0
 14 18  1  0  0  0  0
 14 37  1  0  0  0  0
 15 20  2  0  0  0  0
 15 38  1  0  0  0  0
 16 21  1  0  0  0  0
 16 39  1  0  0  0  0
 17 22  2  0  0  0  0
 17 40  1  0  0  0  0
 18 19  2  0  0  0  0
 18 23  1  0  0  0  0
 19 20  1  0  0  0  0
 20 41  1  0  0  0  0
 21 24  2  0  0  0  0
 21 42  1  0  0  0  0
 22 24  1  0  0  0  0
 22 43  1  0  0  0  0
 23 44  1  0  0  0  0
M  END
> <PUBCHEM_COMPOUND_CID>
44599070

> <PUBCHEM_CONFORMER_RMSD>
0.8

> <PUBCHEM_CONFORMER_DIVERSEORDER>
1
107
79
50
3
96
52
12
16
92
84
81
22
80
100
59
55
8
14
38
28
41
85
23
106
69
2
43
5
88
26
57
110
31
91
86
32
15
102
60
27
108
13
53
25
103
97
46
21
78
54
10
33
72
73
61
95
42
109
70
68
87
11
104
112
9
101
99
58
90
62
30
89
71
47
56
67
77
74
94
39
75
40
34
44
45
76
19
20
48
105
83
24
37
51
65
63
98
4
93
6
66
36
29
18
82
35
64
49
17
111
7

> <PUBCHEM_MMFF94_PARTIAL_CHARGES>
31
1 -0.18
10 0.27
11 0.41
12 0.1
13 -0.14
14 -0.15
15 -0.15
16 -0.15
17 -0.15
19 -0.15
2 -0.81
20 -0.15
21 -0.15
22 -0.15
23 0.14
24 0.18
3 -0.87
36 0.4
37 0.15
38 0.15
39 0.15
4 0.3
40 0.15
41 0.15
42 0.15
43 0.15
44 0.15
45 0.27
5 -0.71
6 0.37
8 0.27

> <PUBCHEM_EFFECTIVE_ROTOR_COUNT>
5.2

> <PUBCHEM_PHARMACOPHORE_FEATURES>
9
1 2 cation
1 3 cation
1 3 donor
1 4 donor
1 5 acceptor
5 4 5 18 19 23 rings
6 12 14 15 18 19 20 rings
6 13 16 17 21 22 24 rings
6 2 6 7 8 9 10 rings

> <PUBCHEM_HEAVY_ATOM_COUNT>
24

> <PUBCHEM_ATOM_DEF_STEREO_COUNT>
1

> <PUBCHEM_ATOM_UDEF_STEREO_COUNT>
0

> <PUBCHEM_BOND_DEF_STEREO_COUNT>
0

> <PUBCHEM_BOND_UDEF_STEREO_COUNT>
0

> <PUBCHEM_ISOTOPIC_ATOM_COUNT>
0

> <PUBCHEM_COMPONENT_COUNT>
1

> <PUBCHEM_CACTVS_TAUTO_COUNT>
2

> <PUBCHEM_CONFORMER_ID>
02A8871E00000001

> <PUBCHEM_MMFF94_ENERGY>
58.0397

> <PUBCHEM_FEATURE_SELFOVERLAP>
45.763

> <PUBCHEM_SHAPE_FINGERPRINT>
100830 39 17330274382591047456
10439779 11 18411407419930400538
10670039 82 17038678427015888364
10708813 3 18339929203526198885
11370993 70 18266171914909372708
12156800 1 14654488595229425190
12788726 201 17541668656551019870
12925494 130 18194126214422598953
12978246 48 18265052624830780168
13122387 1 17041770789845159656
13583140 156 18044394733620018267
13590594 115 17833555587586068258
13617811 41 18268412703350466757
138480 1 18121497960278358106
13965767 371 17896582046600247996
14117953 113 17117196197058236485
14251764 38 18268710683058048100
14466204 15 18409721847246006920
14790565 3 18334588940771250812
15420108 30 18199446841209509986
17980427 23 17912904124615866495
18681886 176 18197487433467602818
19930381 70 18409164411682823505
20567600 299 18196087737915995952
2132832 1 18125691566541767431
21344244 78 17322375009576916347
21860390 5 18199190577120816678
21864079 5 18413390912773302167
22113638 7 17980761528453596273
22749437 52 18337954618050024788
23558518 356 18411983593634802439
23559900 14 17917433077439895004
3117164 225 17977364351900738376
345986 75 16885532434085993050
469060 322 17616834548559616355
474 4 18334296448528133655
5048184 11 18337964492232897612
550186 7 17188995934419382924
5895379 119 17629765560931454562
5939293 188 18195810674166435326
6328613 192 18190181373055416220
6371009 1 18194943335569668952
84936 182 18413105065403735906
9981440 41 18192704759733604402

> <PUBCHEM_SHAPE_MULTIPOLES>
475.85
8.65
6.2
1.04
4.31
1
-0.06
-7.38
-0.5
-4.02
1.82
-0.05
-0.08
-0.86

> <PUBCHEM_SHAPE_SELFOVERLAP>
1025.143

> <PUBCHEM_SHAPE_VOLUME>
262.9

> <PUBCHEM_COORDINATE_TYPE>
2
5
10

$$$$
57446064
  -OEChem-05102415113D

 49 53  0     1  0  0  0  0  0999 V2000
   -1.3155    2.7115   -0.0915 N   0  0  2  0  0  0  0  0  0  0  0  0
    2.3359    2.1247    0.4675 N   0  0  0  0  0  0  0  0  0  0  0  0
   -2.6667   -2.7152    1.4490 N   0  0  0  0  0  0  0  0  0  0  0  0
    3.9347   -3.0755   -0.1774 N   0  0  0  0  0  0  0  0  0  0  0  0
    3.0234   -3.5946   -1.0169 N   0  0  0  0  0  0  0  0  0  0  0  0
    1.1578    2.6220   -0.2124 C   0  0  1  0  0  0  0  0  0  0  0  0
   -0.1022    2.1698    0.5377 C   0  0  0  0  0  0  0  0  0  0  0  0
    1.2219    4.1472   -0.3016 C   0  0  0  0  0  0  0  0  0  0  0  0
   -0.0762    4.7020   -0.8777 C   0  0  0  0  0  0  0  0  0  0  0  0
   -1.2924    4.1805   -0.1115 C   0  0  0  0  0  0  0  0  0  0  0  0
   -2.5104    2.2281    0.6001 C   0  0  0  0  0  0  0  0  0  0  0  0
   -2.8290    0.8017    0.2386 C   0  0  0  0  0  0  0  0  0  0  0  0
    2.7954    0.8253    0.3498 C   0  0  0  0  0  0  0  0  0  0  0  0
   -2.5308   -0.2188    1.1459 C   0  0  0  0  0  0  0  0  0  0  0  0
   -3.4160    0.5190   -0.9933 C   0  0  0  0  0  0  0  0  0  0  0  0
    2.1016   -0.0782   -0.4651 C   0  0  0  0  0  0  0  0  0  0  0  0
   -2.8436   -1.5303    0.7707 C   0  0  0  0  0  0  0  0  0  0  0  0
    3.9417    0.4327    1.0432 C   0  0  0  0  0  0  0  0  0  0  0  0
   -3.4322   -1.8431   -0.4565 C   0  0  0  0  0  0  0  0  0  0  0  0
   -3.7231   -0.7978   -1.3552 C   0  0  0  0  0  0  0  0  0  0  0  0
    2.5844   -1.3932   -0.5715 C   0  0  0  0  0  0  0  0  0  0  0  0
    3.7282   -1.7577    0.1298 C   0  0  0  0  0  0  0  0  0  0  0  0
    4.4346   -0.8728    0.9473 C   0  0  0  0  0  0  0  0  0  0  0  0
   -3.6027   -3.2555   -0.4897 C   0  0  0  0  0  0  0  0  0  0  0  0
   -3.1223   -3.7634    0.6952 C   0  0  0  0  0  0  0  0  0  0  0  0
    2.2034   -2.5682   -1.2544 C   0  0  0  0  0  0  0  0  0  0  0  0
    1.1280    2.2645   -1.2502 H   0  0  0  0  0  0  0  0  0  0  0  0
   -0.1415    1.0776    0.5511 H   0  0  0  0  0  0  0  0  0  0  0  0
   -0.0399    2.4871    1.5888 H   0  0  0  0  0  0  0  0  0  0  0  0
    1.3885    4.5790    0.6942 H   0  0  0  0  0  0  0  0  0  0  0  0
    2.0707    4.4587   -0.9222 H   0  0  0  0  0  0  0  0  0  0  0  0
   -0.0578    5.7971   -0.8411 H   0  0  0  0  0  0  0  0  0  0  0  0
   -0.1579    4.4190   -1.9348 H   0  0  0  0  0  0  0  0  0  0  0  0
   -1.2877    4.5846    0.9094 H   0  0  0  0  0  0  0  0  0  0  0  0
   -2.1923    4.5617   -0.6095 H   0  0  0  0  0  0  0  0  0  0  0  0
   -3.3868    2.8258    0.3116 H   0  0  0  0  0  0  0  0  0  0  0  0
   -2.4276    2.3506    1.6888 H   0  0  0  0  0  0  0  0  0  0  0  0
    2.8111    2.7362    1.1226 H   0  0  0  0  0  0  0  0  0  0  0  0
   -2.0734   -0.0104    2.1079 H   0  0  0  0  0  0  0  0  0  0  0  0
   -3.6436    1.3208   -1.6921 H   0  0  0  0  0  0  0  0  0  0  0  0
    1.2135    0.1750   -1.0305 H   0  0  0  0  0  0  0  0  0  0  0  0
    4.4725    1.1436    1.6733 H   0  0  0  0  0  0  0  0  0  0  0  0
   -4.1804   -1.0040   -2.3187 H   0  0  0  0  0  0  0  0  0  0  0  0
    5.3248   -1.1796    1.4850 H   0  0  0  0  0  0  0  0  0  0  0  0
   -2.2592   -2.7983    2.3701 H   0  0  0  0  0  0  0  0  0  0  0  0
   -4.0302   -3.8387   -1.2938 H   0  0  0  0  0  0  0  0  0  0  0  0
   -3.0643   -4.7761    1.0686 H   0  0  0  0  0  0  0  0  0  0  0  0
    1.3610   -2.7176   -1.9151 H   0  0  0  0  0  0  0  0  0  0  0  0
    4.6785   -3.6779    0.1523 H   0  0  0  0  0  0  0  0  0  0  0  0
  1  7  1  0  0  0  0
  1 10  1  0  0  0  0
  1 11  1  0  0  0  0
  2  6  1  0  0  0  0
  2 13  1  0  0  0  0
  2 38  1  0  0  0  0
  3 17  1  0  0  0  0
  3 25  1  0  0  0  0
  3 45  1  0  0  0  0
  4  5  1  0  0  0  0
  4 22  1  0  0  0  0
  4 49  1  0  0  0  0
  5 26  2  0  0  0  0
  6  7  1  0  0  0  0
  6  8  1  0  0  0  0
  6 27  1  0  0  0  0
  7 28  1  0  0  0  0
  7 29  1  0  0  0  0
  8  9  1  0  0  0  0
  8 30  1  0  0  0  0
  8 31  1  0  0  0  0
  9 10  1  0  0  0  0
  9 32  1  0  0  0  0
  9 33  1  0  0  0  0
 10 34  1  0  0  0  0
 10 35  1  0  0  0  0
 11 12  1  0  0  0  0
 11 36  1  0  0  0  0
 11 37  1  0  0  0  0
 12 14  2  0  0  0  0
 12 15  1  0  0  0  0
 13 16  2  0  0  0  0
 13 18  1  0  0  0  0
 14 17  1  0  0  0  0
 14 39  1  0  0  0  0
 15 20  2  0  0  0  0
 15 40  1  0  0  0  0
 16 21  1  0  0  0  0
 16 41  1  0  0  0  0
 17 19  2  0  0  0  0
 18 23  2  0  0  0  0
 18 42  1  0  0  0  0
 19 20  1  0  0  0  0
 19 24  1  0  0  0  0
 20 43  1  0  0  0  0
 21 22  2  0  0  0  0
 21 26  1  0  0  0  0
 22 23  1  0  0  0  0
 23 44  1  0  0  0  0
 24 25  2  0  0  0  0
 24 46  1  0  0  0  0
 25 47  1  0  0  0  0
 26 48  1  0  0  0  0
M  END
> <PUBCHEM_COMPOUND_CID>
57446064

> <PUBCHEM_CONFORMER_RMSD>
0.8

> <PUBCHEM_CONFORMER_DIVERSEORDER>
1
54
156
316
208
307
343
218
81
277
340
227
347
349
129
31
234
332
141
258
164
327
51
177
199
233
10
88
271
98
198
251
274
128
74
306
339
47
152
278
35
95
190
77
154
196
184
24
235
192
197
63
289
100
348
175
304
256
241
50
126
137
87
42
114
162
336
19
329
52
216
284
163
354
93
215
317
155
262
174
119
302
203
207
264
270
324
102
303
171
96
173
290
112
161
176
240
322
328
253
213
169
106
350
319
130
286
211
70
110
38
314
279
5
344
79
144
57
67
82
76
315
91
312
13
200
206
224
288
113
157
20
294
345
135
7
255
45
179
263
275
238
160
105
320
97
356
231
280
49
204
298
30
131
352
229
300
313
85
265
73
46
64
121
34
220
118
232
201
292
2
149
66
134
331
228
23
260
15
143
59
299
325
266
273
108
333
252
309
242
18
250
166
282
44
221
217
8
353
248
311
276
61
334
330
230
285
341
4
132
147
202
109
11
12
21
127
136
124
244
83
139
168
189
172
165
68
104
283
187
226
60
355
193
3
142
103
301
181
269
14
27
295
16
321
39
305
107
351
205
25
117
268
338
267
101
209
293
194
115
247
122
219
37
84
261
71
249
178
92
297
41
145
272
138
17
99
167
212
281
191
6
323
80
210
222
58
239
259
296
346
29
33
310
185
36
90
287
151
342
94
245
223
225
43
150
32
236
86
69
308
195
72
243
125
158
254
337
214
75
180
40
291
26
116
326
120
257
153
182
123
237
62
65
53
188
183
159
133
111
22
48
56
318
55
146
335
78
140
170
148
9
89
246
186
28

> <PUBCHEM_MMFF94_PARTIAL_CHARGES>
34
1 -0.81
10 0.27
11 0.41
12 -0.14
13 0.1
14 -0.15
15 -0.15
16 -0.15
17 -0.15
18 -0.15
2 -0.87
20 -0.15
22 -0.15
23 -0.15
24 -0.15
25 -0.3
26 0.14
3 0.03
38 0.4
39 0.15
4 0.3
40 0.15
41 0.15
42 0.15
43 0.15
44 0.15
45 0.27
46 0.15
47 0.15
48 0.15
49 0.27
5 -0.71
6 0.37
7 0.27

> <PUBCHEM_EFFECTIVE_ROTOR_COUNT>
5.2

> <PUBCHEM_PHARMACOPHORE_FEATURES>
12
1 1 cation
1 2 cation
1 2 donor
1 3 cation
1 3 donor
1 4 donor
1 5 acceptor
5 3 17 19 24 25 rings
5 4 5 21 22 26 rings
6 1 6 7 8 9 10 rings
6 12 14 15 17 19 20 rings
6 13 16 18 21 22 23 rings

> <PUBCHEM_HEAVY_ATOM_COUNT>
26

> <PUBCHEM_ATOM_DEF_STEREO_COUNT>
0

> <PUBCHEM_ATOM_UDEF_STEREO_COUNT>
1

> <PUBCHEM_BOND_DEF_STEREO_COUNT>
0

> <PUBCHEM_BOND_UDEF_STEREO_COUNT>
0

> <PUBCHEM_ISOTOPIC_ATOM_COUNT>
0

> <PUBCHEM_COMPONENT_COUNT>
1

> <PUBCHEM_CACTVS_TAUTO_COUNT>
2

> <PUBCHEM_CONFORMER_ID>
036C8EB000000001

> <PUBCHEM_MMFF94_ENERGY>
57.0443

> <PUBCHEM_FEATURE_SELFOVERLAP>
61.081

> <PUBCHEM_SHAPE_FINGERPRINT>
10940486 97 17829907442865252724
11014199 57 18411142454180273251
11285246 1 17903597892932766789
12553582 1 18338531784297677509
13122387 1 16321756635488322254
1361 2 16969701677306441091
138480 1 15023585169548876421
140371 6 18410566306004010557
14251757 5 17907322965212753502
14659021 117 18193262010655592690
14725015 67 17979353054264130599
15927050 60 17043163867352816669
16719943 64 17328028668144036258
19315092 285 16556189471619888119
19930381 70 18122343755461722403
20775530 9 18335139851208368579
21133410 52 17693077975454917102
21133410 62 16175639928244852854
23559900 14 18193545890792948385
23572383 38 18266436828323170490
3027735 51 17690555291494665149
4280585 95 18262500568554619936
445580 102 18049161365091379819
463206 1 18409731742086032184
469060 322 17625778946765183302
5265222 85 17328612535020147892
5309563 4 18123472945202542531
550186 72 18409166607029096012
613672 6 18338218449264036675
9709674 26 18341328881981124154

> <PUBCHEM_SHAPE_MULTIPOLES>
510.16
8.5
6.65
1.17
0.66
3.95
-0.01
-8.38
0.59
0.5
-1.23
-0.32
-0.45
0.87

> <PUBCHEM_SHAPE_SELFOVERLAP>
1132.222

> <PUBCHEM_SHAPE_VOLUME>
272.4

> <PUBCHEM_COORDINATE_TYPE>
2
5
10

$$$$
25009185
  -OEChem-05102415113D

 48 51  0     1  0  0  0  0  0999 V2000
   -2.6800   -2.1497    1.9741 O   0  0  0  0  0  0  0  0  0  0  0  0
   -0.9892    2.8436   -0.1197 N   0  0  2  0  0  0  0  0  0  0  0  0
    2.5990    1.8943    0.3429 N   0  0  0  0  0  0  0  0  0  0  0  0
    3.6154   -3.4719   -0.0873 N   0  0  0  0  0  0  0  0  0  0  0  0
    2.6212   -3.9303   -0.8661 N   0  0  0  0  0  0  0  0  0  0  0  0
    1.4541    2.4824   -0.3210 C   0  0  2  0  0  0  0  0  0  0  0  0
    1.6757    3.9857   -0.4918 C   0  0  0  0  0  0  0  0  0  0  0  0
    0.1842    2.2053    0.4946 C   0  0  0  0  0  0  0  0  0  0  0  0
    0.4217    4.6488   -1.0509 C   0  0  0  0  0  0  0  0  0  0  0  0
   -0.8114    4.2989   -0.2170 C   0  0  0  0  0  0  0  0  0  0  0  0
   -2.2001    2.5257    0.6369 C   0  0  0  0  0  0  0  0  0  0  0  0
    2.9133    0.5488    0.2770 C   0  0  0  0  0  0  0  0  0  0  0  0
   -2.6822    1.1262    0.3616 C   0  0  0  0  0  0  0  0  0  0  0  0
    2.0961   -0.3133   -0.4650 C   0  0  0  0  0  0  0  0  0  0  0  0
    4.0396    0.0699    0.9487 C   0  0  0  0  0  0  0  0  0  0  0  0
   -2.4632    0.1159    1.2980 C   0  0  0  0  0  0  0  0  0  0  0  0
   -3.3467    0.8398   -0.8310 C   0  0  0  0  0  0  0  0  0  0  0  0
    2.4338   -1.6759   -0.5201 C   0  0  0  0  0  0  0  0  0  0  0  0
    3.5608   -2.1264    0.1582 C   0  0  0  0  0  0  0  0  0  0  0  0
    4.3887   -1.2838    0.9033 C   0  0  0  0  0  0  0  0  0  0  0  0
   -2.9086   -1.1809    1.0419 C   0  0  0  0  0  0  0  0  0  0  0  0
   -3.7919   -0.4569   -1.0872 C   0  0  0  0  0  0  0  0  0  0  0  0
   -3.5729   -1.4674   -0.1507 C   0  0  0  0  0  0  0  0  0  0  0  0
    1.9044   -2.8349   -1.1272 C   0  0  0  0  0  0  0  0  0  0  0  0
   -4.0365   -2.7915   -0.4329 C   0  0  0  0  0  0  0  0  0  0  0  0
   -4.4254   -3.9026   -0.6695 C   0  0  0  0  0  0  0  0  0  0  0  0
    1.3452    2.0805   -1.3371 H   0  0  0  0  0  0  0  0  0  0  0  0
    2.5273    4.1736   -1.1567 H   0  0  0  0  0  0  0  0  0  0  0  0
    1.9266    4.4445    0.4739 H   0  0  0  0  0  0  0  0  0  0  0  0
    0.3215    2.5642    1.5250 H   0  0  0  0  0  0  0  0  0  0  0  0
    0.0298    1.1255    0.5664 H   0  0  0  0  0  0  0  0  0  0  0  0
    0.5574    5.7360   -1.0721 H   0  0  0  0  0  0  0  0  0  0  0  0
    0.2684    4.3257   -2.0884 H   0  0  0  0  0  0  0  0  0  0  0  0
   -0.7231    4.7488    0.7806 H   0  0  0  0  0  0  0  0  0  0  0  0
   -1.6850    4.7505   -0.7028 H   0  0  0  0  0  0  0  0  0  0  0  0
   -2.0620    2.6907    1.7143 H   0  0  0  0  0  0  0  0  0  0  0  0
   -3.0192    3.1992    0.3470 H   0  0  0  0  0  0  0  0  0  0  0  0
    3.1613    2.4817    0.9491 H   0  0  0  0  0  0  0  0  0  0  0  0
    1.2173    0.0061   -1.0109 H   0  0  0  0  0  0  0  0  0  0  0  0
    4.6674    0.7496    1.5216 H   0  0  0  0  0  0  0  0  0  0  0  0
   -1.9446    0.3404    2.2271 H   0  0  0  0  0  0  0  0  0  0  0  0
   -3.5227    1.6185   -1.5686 H   0  0  0  0  0  0  0  0  0  0  0  0
    5.2631   -1.6577    1.4242 H   0  0  0  0  0  0  0  0  0  0  0  0
   -4.3077   -0.6635   -2.0221 H   0  0  0  0  0  0  0  0  0  0  0  0
    1.0248   -2.9250   -1.7488 H   0  0  0  0  0  0  0  0  0  0  0  0
    4.3049   -4.1338    0.2465 H   0  0  0  0  0  0  0  0  0  0  0  0
   -2.2063   -1.7609    2.7293 H   0  0  0  0  0  0  0  0  0  0  0  0
   -4.7703   -4.8881   -0.8792 H   0  0  0  0  0  0  0  0  0  0  0  0
  1 21  1  0  0  0  0
  1 47  1  0  0  0  0
  2  8  1  0  0  0  0
  2 10  1  0  0  0  0
  2 11  1  0  0  0  0
  3  6  1  0  0  0  0
  3 12  1  0  0  0  0
  3 38  1  0  0  0  0
  4  5  1  0  0  0  0
  4 19  1  0  0  0  0
  4 46  1  0  0  0  0
  5 24  2  0  0  0  0
  6  7  1  0  0  0  0
  6  8  1  0  0  0  0
  6 27  1  0  0  0  0
  7  9  1  0  0  0  0
  7 28  1  0  0  0  0
  7 29  1  0  0  0  0
  8 30  1  0  0  0  0
  8 31  1  0  0  0  0
  9 10  1  0  0  0  0
  9 32  1  0  0  0  0
  9 33  1  0  0  0  0
 10 34  1  0  0  0  0
 10 35  1  0  0  0  0
 11 13  1  0  0  0  0
 11 36  1  0  0  0  0
 11 37  1  0  0  0  0
 12 14  2  0  0  0  0
 12 15  1  0  0  0  0
 13 16  2  0  0  0  0
 13 17  1  0  0  0  0
 14 18  1  0  0  0  0
 14 39  1  0  0  0  0
 15 20  2  0  0  0  0
 15 40  1  0  0  0  0
 16 21  1  0  0  0  0
 16 41  1  0  0  0  0
 17 22  2  0  0  0  0
 17 42  1  0  0  0  0
 18 19  2  0  0  0  0
 18 24  1  0  0  0  0
 19 20  1  0  0  0  0
 20 43  1  0  0  0  0
 21 23  2  0  0  0  0
 22 23  1  0  0  0  0
 22 44  1  0  0  0  0
 23 25  1  0  0  0  0
 24 45  1  0  0  0  0
 25 26  3  0  0  0  0
 26 48  1  0  0  0  0
M  END
> <PUBCHEM_COMPOUND_CID>
25009185

> <PUBCHEM_CONFORMER_RMSD>
0.8

> <PUBCHEM_CONFORMER_DIVERSEORDER>
1
337
62
343
155
107
317
339
134
219
267
328
133
72
151
246
211
283
156
24
190
231
363
258
217
334
299
263
244
350
91
281
273
252
160
203
44
304
115
235
25
278
269
335
56
139
294
83
233
364
237
255
327
324
222
287
310
207
199
2
76
145
129
92
292
362
323
209
148
227
314
301
276
46
52
89
12
285
247
298
195
135
93
123
176
109
47
313
280
162
325
55
243
361
9
254
165
229
312
127
64
146
119
290
300
43
205
132
143
206
265
61
108
213
345
196
136
346
348
245
122
321
124
251
114
168
202
71
116
191
368
181
223
357
239
75
242
188
240
342
297
295
333
352
34
319
234
365
230
163
21
20
170
110
225
167
57
316
238
102
169
344
180
226
172
174
38
354
356
45
42
351
241
35
94
303
126
29
212
16
306
289
112
288
183
249
175
236
279
260
149
194
78
221
120
97
31
138
66
200
275
65
311
250
137
347
187
256
272
144
13
63
359
264
130
220
70
118
330
85
5
309
33
268
100
50
150
232
113
224
77
282
261
28
178
142
248
208
11
96
270
74
84
326
154
48
14
27
367
51
366
340
253
95
49
271
353
32
17
141
293
7
121
291
228
153
322
266
6
161
99
308
152
3
189
19
140
159
60
182
201
164
131
318
15
90
157
40
30
79
86
284
166
4
158
69
349
329
315
360
103
331
302
54
197
336
87
277
68
355
338
369
257
18
259
104
215
218
58
186
305
82
171
274
198
214
26
185
192
332
320
262
179
80
204
358
67
10
98
177
39
147
88
41
173
105
193
53
8
22
81
296
59
286
341
128
23
36
184
307
111
210
101
117
125
106
37
216
73

> <PUBCHEM_MMFF94_PARTIAL_CHARGES>
34
1 -0.53
10 0.27
11 0.41
12 0.1
13 -0.14
14 -0.15
15 -0.15
16 -0.15
17 -0.15
19 -0.15
2 -0.81
20 -0.15
21 0.08
22 -0.15
23 0.07
24 0.14
25 -0.07
26 -0.18
3 -0.87
38 0.4
39 0.15
4 0.3
40 0.15
41 0.15
42 0.15
43 0.15
44 0.15
45 0.15
46 0.27
47 0.45
48 0.18
5 -0.71
6 0.37
8 0.27

> <PUBCHEM_EFFECTIVE_ROTOR_COUNT>
5.2

> <PUBCHEM_PHARMACOPHORE_FEATURES>
11
1 1 donor
1 2 cation
1 26 hydrophobe
1 3 cation
1 3 donor
1 4 donor
1 5 acceptor
5 4 5 18 19 24 rings
6 12 14 15 18 19 20 rings
6 13 16 17 21 22 23 rings
6 2 6 7 8 9 10 rings

> <PUBCHEM_HEAVY_ATOM_COUNT>
26

> <PUBCHEM_ATOM_DEF_STEREO_COUNT>
0

> <PUBCHEM_ATOM_UDEF_STEREO_COUNT>
1

> <PUBCHEM_BOND_DEF_STEREO_COUNT>
0

> <PUBCHEM_BOND_UDEF_STEREO_COUNT>
0

> <PUBCHEM_ISOTOPIC_ATOM_COUNT>
0

> <PUBCHEM_COMPONENT_COUNT>
1

> <PUBCHEM_CACTVS_TAUTO_COUNT>
6

> <PUBCHEM_CONFORMER_ID>
017D9C2100000001

> <PUBCHEM_MMFF94_ENERGY>
60.1977

> <PUBCHEM_FEATURE_SELFOVERLAP>
55.912

> <PUBCHEM_SHAPE_FINGERPRINT>
10940486 97 17686073699685733078
11014199 57 18411984650054131135
12156800 1 10436199706973675877
12553582 1 18337408053433858232
13122387 1 15889693619979263351
1361 2 17402043900138915319
138480 1 18338234972019165613
14251757 5 17619092546074439014
14659021 117 18049145692934909066
14725015 67 17619907262694249943
16719943 64 16896244911271497750
17138139 8 16333005279865313335
19930381 70 18266738176615148407
20028762 73 17912368933420655804
20775438 99 17835472225590247989
20775530 9 18261398874771805115
21133410 52 17981308308599187214
21344244 181 17832119655570803749
23559900 14 18338504361369381393
4280585 95 18262502733186319672
5265222 85 17041227648939888612
5309563 4 18268147737452198663
550186 72 18336265648997001644
56633871 153 18341058428333529179
57527585 103 17896060826486245987
613672 6 18338497682378614671
9709674 26 18196087734048270616

> <PUBCHEM_SHAPE_MULTIPOLES>
509.27
8.83
6.75
1.19
2.97
2.93
-0.24
-9.33
-0.43
-1.79
2.14
0.49
-0.3
-0.23

> <PUBCHEM_SHAPE_SELFOVERLAP>
1108.829

> <PUBCHEM_SHAPE_VOLUME>
277.9

> <PUBCHEM_COORDINATE_TYPE>
2
5
10

$$$$
25010080
  -OEChem-05102415123D

 56 59  0     1  0  0  0  0  0999 V2000
    0.6126   -3.7227    0.2387 O   0  0  0  0  0  0  0  0  0  0  0  0
    4.8822   -2.5160    2.0838 O   0  0  0  0  0  0  0  0  0  0  0  0
   -3.3643    0.3419    0.2521 N   0  0  2  0  0  0  0  0  0  0  0  0
   -0.7790    2.9739    0.8675 N   0  0  0  0  0  0  0  0  0  0  0  0
    4.1633    1.8513   -1.2129 N   0  0  0  0  0  0  0  0  0  0  0  0
    3.9052    1.0167   -2.2335 N   0  0  0  0  0  0  0  0  0  0  0  0
   -1.9714    2.3911    0.2881 C   0  0  2  0  0  0  0  0  0  0  0  0
   -3.1913    3.2295    0.6718 C   0  0  0  0  0  0  0  0  0  0  0  0
   -2.1277    0.9434    0.7723 C   0  0  0  0  0  0  0  0  0  0  0  0
   -4.4731    2.5519    0.1999 C   0  0  0  0  0  0  0  0  0  0  0  0
   -4.5458    1.1024    0.6815 C   0  0  0  0  0  0  0  0  0  0  0  0
   -3.4726   -1.0540    0.6759 C   0  0  0  0  0  0  0  0  0  0  0  0
   -2.5696   -1.9548   -0.1241 C   0  0  0  0  0  0  0  0  0  0  0  0
    0.4980    2.7328    0.3934 C   0  0  0  0  0  0  0  0  0  0  0  0
    0.6749    1.8823   -0.7053 C   0  0  0  0  0  0  0  0  0  0  0  0
   -1.3819   -2.4266    0.4348 C   0  0  0  0  0  0  0  0  0  0  0  0
    1.5906    3.3405    1.0145 C   0  0  0  0  0  0  0  0  0  0  0  0
   -2.9211   -2.3175   -1.4243 C   0  0  0  0  0  0  0  0  0  0  0  0
    1.9798    1.6518   -1.1720 C   0  0  0  0  0  0  0  0  0  0  0  0
    3.0502    2.2696   -0.5348 C   0  0  0  0  0  0  0  0  0  0  0  0
   -0.5458   -3.2615   -0.3066 C   0  0  0  0  0  0  0  0  0  0  0  0
    2.8956    3.1208    0.5616 C   0  0  0  0  0  0  0  0  0  0  0  0
   -2.0849   -3.1523   -2.1657 C   0  0  0  0  0  0  0  0  0  0  0  0
   -0.8974   -3.6242   -1.6067 C   0  0  0  0  0  0  0  0  0  0  0  0
    2.5759    0.8976   -2.2054 C   0  0  0  0  0  0  0  0  0  0  0  0
    1.2532   -2.8893    1.2036 C   0  0  0  0  0  0  0  0  0  0  0  0
    2.7547   -3.1290    1.1768 C   0  0  0  0  0  0  0  0  0  0  0  0
    3.4896   -2.2495    2.1749 C   0  0  0  0  0  0  0  0  0  0  0  0
   -1.9242    2.4191   -0.8086 H   0  0  0  0  0  0  0  0  0  0  0  0
   -3.2332    3.3623    1.7610 H   0  0  0  0  0  0  0  0  0  0  0  0
   -3.1167    4.2340    0.2381 H   0  0  0  0  0  0  0  0  0  0  0  0
   -1.2615    0.3594    0.4505 H   0  0  0  0  0  0  0  0  0  0  0  0
   -2.1217    0.9192    1.8718 H   0  0  0  0  0  0  0  0  0  0  0  0
   -4.5189    2.5784   -0.8963 H   0  0  0  0  0  0  0  0  0  0  0  0
   -5.3421    3.1083    0.5690 H   0  0  0  0  0  0  0  0  0  0  0  0
   -5.4532    0.6530    0.2597 H   0  0  0  0  0  0  0  0  0  0  0  0
   -4.6480    1.0804    1.7746 H   0  0  0  0  0  0  0  0  0  0  0  0
   -4.4965   -1.4220    0.5187 H   0  0  0  0  0  0  0  0  0  0  0  0
   -3.2908   -1.1673    1.7535 H   0  0  0  0  0  0  0  0  0  0  0  0
   -0.8727    3.5300    1.7105 H   0  0  0  0  0  0  0  0  0  0  0  0
   -0.1366    1.3924   -1.2285 H   0  0  0  0  0  0  0  0  0  0  0  0
   -1.1472   -2.1507    1.4590 H   0  0  0  0  0  0  0  0  0  0  0  0
    1.4406    3.9997    1.8673 H   0  0  0  0  0  0  0  0  0  0  0  0
   -3.8437   -1.9561   -1.8709 H   0  0  0  0  0  0  0  0  0  0  0  0
    3.7455    3.5917    1.0426 H   0  0  0  0  0  0  0  0  0  0  0  0
   -2.3584   -3.4345   -3.1781 H   0  0  0  0  0  0  0  0  0  0  0  0
   -0.2499   -4.2740   -2.1891 H   0  0  0  0  0  0  0  0  0  0  0  0
    2.0948    0.2655   -2.9383 H   0  0  0  0  0  0  0  0  0  0  0  0
    5.1278    2.0983   -1.0299 H   0  0  0  0  0  0  0  0  0  0  0  0
    0.8553   -3.1264    2.1972 H   0  0  0  0  0  0  0  0  0  0  0  0
    1.0827   -1.8259    0.9884 H   0  0  0  0  0  0  0  0  0  0  0  0
    2.9696   -4.1866    1.3761 H   0  0  0  0  0  0  0  0  0  0  0  0
    3.1434   -2.9540    0.1653 H   0  0  0  0  0  0  0  0  0  0  0  0
    3.1604   -2.4592    3.1975 H   0  0  0  0  0  0  0  0  0  0  0  0
    3.3244   -1.1892    1.9575 H   0  0  0  0  0  0  0  0  0  0  0  0
    5.3256   -1.9404    2.7300 H   0  0  0  0  0  0  0  0  0  0  0  0
  1 21  1  0  0  0  0
  1 26  1  0  0  0  0
  2 28  1  0  0  0  0
  2 56  1  0  0  0  0
  3  9  1  0  0  0  0
  3 11  1  0  0  0  0
  3 12  1  0  0  0  0
  4  7  1  0  0  0  0
  4 14  1  0  0  0  0
  4 40  1  0  0  0  0
  5  6  1  0  0  0  0
  5 20  1  0  0  0  0
  5 49  1  0  0  0  0
  6 25  2  0  0  0  0
  7  8  1  0  0  0  0
  7  9  1  0  0  0  0
  7 29  1  0  0  0  0
  8 10  1  0  0  0  0
  8 30  1  0  0  0  0
  8 31  1  0  0  0  0
  9 32  1  0  0  0  0
  9 33  1  0  0  0  0
 10 11  1  0  0  0  0
 10 34  1  0  0  0  0
 10 35  1  0  0  0  0
 11 36  1  0  0  0  0
 11 37  1  0  0  0  0
 12 13  1  0  0  0  0
 12 38  1  0  0  0  0
 12 39  1  0  0  0  0
 13 16  2  0  0  0  0
 13 18  1  0  0  0  0
 14 15  2  0  0  0  0
 14 17  1  0  0  0  0
 15 19  1  0  0  0  0
 15 41  1  0  0  0  0
 16 21  1  0  0  0  0
 16 42  1  0  0  0  0
 17 22  2  0  0  0  0
 17 43  1  0  0  0  0
 18 23  2  0  0  0  0
 18 44  1  0  0  0  0
 19 20  2  0  0  0  0
 19 25  1  0  0  0  0
 20 22  1  0  0  0  0
 21 24  2  0  0  0  0
 22 45  1  0  0  0  0
 23 24  1  0  0  0  0
 23 46  1  0  0  0  0
 24 47  1  0  0  0  0
 25 48  1  0  0  0  0
 26 27  1  0  0  0  0
 26 50  1  0  0  0  0
 26 51  1  0  0  0  0
 27 28  1  0  0  0  0
 27 52  1  0  0  0  0
 27 53  1  0  0  0  0
 28 54  1  0  0  0  0
 28 55  1  0  0  0  0
M  END
> <PUBCHEM_COMPOUND_CID>
25010080

> <PUBCHEM_CONFORMER_RMSD>
1.2

> <PUBCHEM_CONFORMER_DIVERSEORDER>
1
154
15
203
24
183
78
106
20
204
146
213
36
115
18
212
176
19
161
97
206
138
217
165
152
52
73
150
102
173
89
114
70
48
191
95
91
179
194
192
71
110
163
100
88
208
160
12
83
49
202
196
60
79
123
147
162
45
149
177
51
180
181
93
135
119
139
116
172
117
193
185
16
170
184
101
199
54
69
56
201
7
189
90
68
195
197
182
85
211
200
210
99
151
104
129
29
133
157
130
84
43
41
113
141
111
207
23
121
3
57
5
168
77
98
188
166
187
65
2
186
103
159
125
120
26
169
96
142
94
8
81
171
198
153
155
209
75
13
145
144
34
216
174
137
59
156
28
205
214
132
30
42
9
66
55
158
87
107
76
58
39
31
40
35
14
178
127
33
11
74
64
53
109
126
25
4
62
215
148
108
47
21
164
82
190
128
80
167
92
118
38
86
105
50
136
122
27
67
44
17
22
143
112
175
32
10
6
140
134
37
72
46
124
131
61
63

> <PUBCHEM_MMFF94_PARTIAL_CHARGES>
35
1 -0.36
11 0.27
12 0.41
13 -0.14
14 0.1
15 -0.15
16 -0.15
17 -0.15
18 -0.15
2 -0.68
20 -0.15
21 0.08
22 -0.15
23 -0.15
24 -0.15
25 0.14
26 0.28
28 0.28
3 -0.81
4 -0.87
40 0.4
41 0.15
42 0.15
43 0.15
44 0.15
45 0.15
46 0.15
47 0.15
48 0.15
49 0.27
5 0.3
56 0.4
6 -0.71
7 0.37
9 0.27

> <PUBCHEM_EFFECTIVE_ROTOR_COUNT>
9.2

> <PUBCHEM_PHARMACOPHORE_FEATURES>
12
1 1 acceptor
1 2 acceptor
1 2 donor
1 3 cation
1 4 cation
1 4 donor
1 5 donor
1 6 acceptor
5 5 6 19 20 25 rings
6 13 16 18 21 23 24 rings
6 14 15 17 19 20 22 rings
6 3 7 8 9 10 11 rings

> <PUBCHEM_HEAVY_ATOM_COUNT>
28

> <PUBCHEM_ATOM_DEF_STEREO_COUNT>
0

> <PUBCHEM_ATOM_UDEF_STEREO_COUNT>
1

> <PUBCHEM_BOND_DEF_STEREO_COUNT>
0

> <PUBCHEM_BOND_UDEF_STEREO_COUNT>
0

> <PUBCHEM_ISOTOPIC_ATOM_COUNT>
0

> <PUBCHEM_COMPONENT_COUNT>
1

> <PUBCHEM_CACTVS_TAUTO_COUNT>
2

> <PUBCHEM_CONFORMER_ID>
017D9FA000000001

> <PUBCHEM_MMFF94_ENERGY>
70.2674

> <PUBCHEM_FEATURE_SELFOVERLAP>
60.988

> <PUBCHEM_SHAPE_FINGERPRINT>
10006869 2 18339085999206036459
1100329 8 18338521824553328774
11513181 2 17699834143004497294
12156800 1 16557310866090077415
12202916 173 16759422273005706878
12553582 1 17115524385359518357
140371 6 17546735846430027049
14114206 34 17832149689806748757
14251757 5 17907613510817521652
14659021 117 17909547603458072888
15403338 16 17026559154223348515
15840311 113 16045901302301660697
15961568 22 17474672750138196055
21315764 21 17606365939126560702
22113638 7 18195235620778512731
3298306 158 18339372872676634557
474144 1 18043543724220041510
57091435 65 18335985345516889906
6287921 2 17118330892598853419
9709674 26 17769103684638834933
9982175 49 18040433330985912748

> <PUBCHEM_SHAPE_MULTIPOLES>
544.56
8.06
6.76
1.97
1.43
2.53
0.57
-2.31
-0.66
0.33
-1.13
2.04
1.41
-4.16

> <PUBCHEM_SHAPE_SELFOVERLAP>
1163.755

> <PUBCHEM_SHAPE_VOLUME>
303

> <PUBCHEM_COORDINATE_TYPE>
2
5
10

$$$$
25010077
  -OEChem-05102415123D

 54 57  0     1  0  0  0  0  0999 V2000
   -0.7184   -3.8005    0.5608 O   0  0  0  0  0  0  0  0  0  0  0  0
   -2.8644    1.4441    0.0854 N   0  0  2  0  0  0  0  0  0  0  0  0
    0.4885    2.9582    0.7607 N   0  0  0  0  0  0  0  0  0  0  0  0
    4.7395   -0.0754   -0.8947 N   0  0  0  0  0  0  0  0  0  0  0  0
    4.2369   -0.8249   -1.8899 N   0  0  0  0  0  0  0  0  0  0  0  0
    2.3464   -3.4110    2.5677 N   0  0  0  0  0  0  0  0  0  0  0  0
   -0.8053    2.8222    0.1242 C   0  0  2  0  0  0  0  0  0  0  0  0
   -1.6364    4.0807    0.3763 C   0  0  0  0  0  0  0  0  0  0  0  0
   -1.5198    1.5767    0.6653 C   0  0  0  0  0  0  0  0  0  0  0  0
   -3.0539    3.8982   -0.1550 C   0  0  0  0  0  0  0  0  0  0  0  0
   -3.6917    2.6196    0.3896 C   0  0  0  0  0  0  0  0  0  0  0  0
   -3.5120    0.2242    0.5673 C   0  0  0  0  0  0  0  0  0  0  0  0
   -2.9768   -1.0039   -0.1197 C   0  0  0  0  0  0  0  0  0  0  0  0
    1.6021    2.2243    0.3937 C   0  0  0  0  0  0  0  0  0  0  0  0
    1.4997    1.2920   -0.6465 C   0  0  0  0  0  0  0  0  0  0  0  0
   -2.0841   -1.8431    0.5470 C   0  0  0  0  0  0  0  0  0  0  0  0
    2.8109    2.4236    1.0632 C   0  0  0  0  0  0  0  0  0  0  0  0
   -3.3739   -1.3025   -1.4230 C   0  0  0  0  0  0  0  0  0  0  0  0
    2.6428    0.5579   -1.0045 C   0  0  0  0  0  0  0  0  0  0  0  0
    3.8340    0.7761   -0.3212 C   0  0  0  0  0  0  0  0  0  0  0  0
    3.9575    1.7005    0.7184 C   0  0  0  0  0  0  0  0  0  0  0  0
   -1.5888   -2.9811   -0.0897 C   0  0  0  0  0  0  0  0  0  0  0  0
   -2.8785   -2.4403   -2.0598 C   0  0  0  0  0  0  0  0  0  0  0  0
   -1.9859   -3.2796   -1.3930 C   0  0  0  0  0  0  0  0  0  0  0  0
    2.9612   -0.4370   -1.9536 C   0  0  0  0  0  0  0  0  0  0  0  0
    0.1402   -3.1988    1.5286 C   0  0  0  0  0  0  0  0  0  0  0  0
    1.4303   -4.0001    1.6025 C   0  0  0  0  0  0  0  0  0  0  0  0
   -0.6965    2.7510   -0.9661 H   0  0  0  0  0  0  0  0  0  0  0  0
   -1.6794    4.2981    1.4519 H   0  0  0  0  0  0  0  0  0  0  0  0
   -1.1671    4.9505   -0.0989 H   0  0  0  0  0  0  0  0  0  0  0  0
   -1.5781    1.6317    1.7621 H   0  0  0  0  0  0  0  0  0  0  0  0
   -0.9229    0.6899    0.4365 H   0  0  0  0  0  0  0  0  0  0  0  0
   -3.0317    3.8604   -1.2516 H   0  0  0  0  0  0  0  0  0  0  0  0
   -3.6661    4.7639    0.1220 H   0  0  0  0  0  0  0  0  0  0  0  0
   -3.8489    2.7167    1.4721 H   0  0  0  0  0  0  0  0  0  0  0  0
   -4.6792    2.5121   -0.0753 H   0  0  0  0  0  0  0  0  0  0  0  0
   -4.5899    0.2546    0.3535 H   0  0  0  0  0  0  0  0  0  0  0  0
   -3.4403    0.1296    1.6595 H   0  0  0  0  0  0  0  0  0  0  0  0
    0.5695    3.5686    1.5666 H   0  0  0  0  0  0  0  0  0  0  0  0
    0.5905    1.1038   -1.2035 H   0  0  0  0  0  0  0  0  0  0  0  0
   -1.8138   -1.6013    1.5711 H   0  0  0  0  0  0  0  0  0  0  0  0
    2.8783    3.1511    1.8696 H   0  0  0  0  0  0  0  0  0  0  0  0
   -4.0686   -0.6563   -1.9532 H   0  0  0  0  0  0  0  0  0  0  0  0
    4.8971    1.8537    1.2371 H   0  0  0  0  0  0  0  0  0  0  0  0
   -3.1874   -2.6727   -3.0747 H   0  0  0  0  0  0  0  0  0  0  0  0
   -1.6031   -4.1644   -1.8941 H   0  0  0  0  0  0  0  0  0  0  0  0
    2.3144   -0.8952   -2.6884 H   0  0  0  0  0  0  0  0  0  0  0  0
    5.7157   -0.1936   -0.6536 H   0  0  0  0  0  0  0  0  0  0  0  0
   -0.3655   -3.1994    2.5017 H   0  0  0  0  0  0  0  0  0  0  0  0
    0.3964   -2.1671    1.2509 H   0  0  0  0  0  0  0  0  0  0  0  0
    1.9047   -4.0330    0.6152 H   0  0  0  0  0  0  0  0  0  0  0  0
    1.2110   -5.0384    1.8763 H   0  0  0  0  0  0  0  0  0  0  0  0
    1.9184   -3.4105    3.4927 H   0  0  0  0  0  0  0  0  0  0  0  0
    3.1815   -3.9906    2.6396 H   0  0  0  0  0  0  0  0  0  0  0  0
  1 22  1  0  0  0  0
  1 26  1  0  0  0  0
  2  9  1  0  0  0  0
  2 11  1  0  0  0  0
  2 12  1  0  0  0  0
  3  7  1  0  0  0  0
  3 14  1  0  0  0  0
  3 39  1  0  0  0  0
  4  5  1  0  0  0  0
  4 20  1  0  0  0  0
  4 48  1  0  0  0  0
  5 25  2  0  0  0  0
  6 27  1  0  0  0  0
  6 53  1  0  0  0  0
  6 54  1  0  0  0  0
  7  8  1  0  0  0  0
  7  9  1  0  0  0  0
  7 28  1  0  0  0  0
  8 10  1  0  0  0  0
  8 29  1  0  0  0  0
  8 30  1  0  0  0  0
  9 31  1  0  0  0  0
  9 32  1  0  0  0  0
 10 11  1  0  0  0  0
 10 33  1  0  0  0  0
 10 34  1  0  0  0  0
 11 35  1  0  0  0  0
 11 36  1  0  0  0  0
 12 13  1  0  0  0  0
 12 37  1  0  0  0  0
 12 38  1  0  0  0  0
 13 16  2  0  0  0  0
 13 18  1  0  0  0  0
 14 15  2  0  0  0  0
 14 17  1  0  0  0  0
 15 19  1  0  0  0  0
 15 40  1  0  0  0  0
 16 22  1  0  0  0  0
 16 41  1  0  0  0  0
 17 21  2  0  0  0  0
 17 42  1  0  0  0  0
 18 23  2  0  0  0  0
 18 43  1  0  0  0  0
 19 20  2  0  0  0  0
 19 25  1  0  0  0  0
 20 21  1  0  0  0  0
 21 44  1  0  0  0  0
 22 24  2  0  0  0  0
 23 24  1  0  0  0  0
 23 45  1  0  0  0  0
 24 46  1  0  0  0  0
 25 47  1  0  0  0  0
 26 27  1  0  0  0  0
 26 49  1  0  0  0  0
 26 50  1  0  0  0  0
 27 51  1  0  0  0  0
 27 52  1  0  0  0  0
M  END
> <PUBCHEM_COMPOUND_CID>
25010077

> <PUBCHEM_CONFORMER_RMSD>
1

> <PUBCHEM_CONFORMER_DIVERSEORDER>
1
199
197
205
167
166
206
284
196
123
245
352
29
168
201
138
227
194
88
33
180
303
361
110
283
316
258
328
107
160
235
132
173
92
326
257
151
301
204
272
149
174
22
141
231
103
15
109
354
237
6
305
290
331
185
101
230
266
239
320
259
2
256
335
202
143
37
359
299
45
309
106
148
9
113
162
229
72
287
349
200
236
329
288
267
156
84
265
23
208
114
260
125
44
345
140
147
323
269
34
351
255
211
137
216
119
313
222
248
108
165
357
233
355
234
18
179
340
161
39
25
324
117
164
68
98
302
105
158
339
198
184
50
268
171
356
27
111
210
319
218
127
112
133
136
47
152
263
146
131
253
172
115
334
207
286
35
170
292
96
120
312
209
155
318
214
262
360
153
347
250
330
121
82
142
325
182
154
353
308
91
203
79
21
273
183
41
252
193
36
26
104
130
348
30
296
291
271
12
181
282
190
16
192
145
246
300
311
124
129
128
46
5
336
332
251
220
232
226
254
76
298
74
186
321
289
189
224
58
163
333
212
28
225
93
144
276
8
89
116
13
277
97
274
279
53
51
134
314
61
86
310
150
73
3
358
66
48
221
63
240
175
278
188
83
195
322
4
100
57
261
139
71
217
178
69
247
90
52
95
238
215
169
11
126
122
135
85
295
243
228
317
7
315
285
281
64
344
77
187
87
297
40
241
191
78
213
350
337
31
275
102
244
159
306
10
327
118
249
294
38
176
242
60
42
94
55
264
270
81
338
346
219
293
14
99
59
177
67
32
56
342
43
280
19
341
223
307
70
157
54
49
20
65
343
80
17
24
75
62
304

> <PUBCHEM_MMFF94_PARTIAL_CHARGES>
36
1 -0.36
11 0.27
12 0.41
13 -0.14
14 0.1
15 -0.15
16 -0.15
17 -0.15
18 -0.15
2 -0.81
20 -0.15
21 -0.15
22 0.08
23 -0.15
24 -0.15
25 0.14
26 0.28
27 0.27
3 -0.87
39 0.4
4 0.3
40 0.15
41 0.15
42 0.15
43 0.15
44 0.15
45 0.15
46 0.15
47 0.15
48 0.27
5 -0.71
53 0.36
54 0.36
6 -0.99
7 0.37
9 0.27

> <PUBCHEM_EFFECTIVE_ROTOR_COUNT>
8.2

> <PUBCHEM_PHARMACOPHORE_FEATURES>
12
1 1 acceptor
1 2 cation
1 3 cation
1 3 donor
1 4 donor
1 5 acceptor
1 6 cation
1 6 donor
5 4 5 19 20 25 rings
6 13 16 18 22 23 24 rings
6 14 15 17 19 20 21 rings
6 2 7 8 9 10 11 rings

> <PUBCHEM_HEAVY_ATOM_COUNT>
27

> <PUBCHEM_ATOM_DEF_STEREO_COUNT>
0

> <PUBCHEM_ATOM_UDEF_STEREO_COUNT>
1

> <PUBCHEM_BOND_DEF_STEREO_COUNT>
0

> <PUBCHEM_BOND_UDEF_STEREO_COUNT>
0

> <PUBCHEM_ISOTOPIC_ATOM_COUNT>
0

> <PUBCHEM_COMPONENT_COUNT>
1

> <PUBCHEM_CACTVS_TAUTO_COUNT>
2

> <PUBCHEM_CONFORMER_ID>
017D9F9D00000001

> <PUBCHEM_MMFF94_ENERGY>
66.1746

> <PUBCHEM_FEATURE_SELFOVERLAP>
60.988

> <PUBCHEM_SHAPE_FINGERPRINT>
10006869 2 18338801109824790283
1100329 8 17905892478988782582
11828532 37 16311032647754378922
12156800 1 16482419753151384821
12202916 173 17549796212212210902
12553582 1 17835533982560836909
12788726 201 18338234980809482264
140371 6 17690840490218921785
14114206 34 18263648522759377004
14251757 5 18196119761572106732
14659021 117 18340198717372418168
15840311 113 14820624162585346865
20600515 1 17755003530428431372
20764821 26 18047200923016163274
21315764 21 17387665280985813383
22113638 7 17545585769661326899
3298306 158 18050573941444170285
474144 1 17539421929209658218
5282940 2 18044944463068126586
5309563 4 16899622108633345567
57091435 65 18191309268977079666
57527585 103 17684940488953852579
6287921 2 15965683076198401162
9709674 26 18200315553535823900

> <PUBCHEM_SHAPE_MULTIPOLES>
524.87
7.77
6.53
1.8
5.23
0.63
0.12
-0.82
2.56
-3.76
-2.77
0.92
2.18
-1.14

> <PUBCHEM_SHAPE_SELFOVERLAP>
1126.538

> <PUBCHEM_SHAPE_VOLUME>
290.9

> <PUBCHEM_COORDINATE_TYPE>
2
5
10

$$$$
25010076
  -OEChem-05102415123D

 52 55  0     1  0  0  0  0  0999 V2000
    0.7631   -3.6425    0.4393 O   0  0  0  0  0  0  0  0  0  0  0  0
    3.3575   -2.0772    2.3600 O   0  0  0  0  0  0  0  0  0  0  0  0
    3.4662   -3.7086    0.7744 O   0  0  0  0  0  0  0  0  0  0  0  0
   -3.3268    0.2952    0.1154 N   0  0  2  0  0  0  0  0  0  0  0  0
   -0.8613    3.0209    0.8099 N   0  0  0  0  0  0  0  0  0  0  0  0
    4.2256    2.0022   -0.9508 N   0  0  0  0  0  0  0  0  0  0  0  0
    4.0526    1.1351   -1.9623 N   0  0  0  0  0  0  0  0  0  0  0  0
   -1.9999    2.3871    0.1779 C   0  0  2  0  0  0  0  0  0  0  0  0
   -3.2646    3.1962    0.4683 C   0  0  0  0  0  0  0  0  0  0  0  0
   -2.1412    0.9476    0.6903 C   0  0  0  0  0  0  0  0  0  0  0  0
   -4.4957    2.4676   -0.0590 C   0  0  0  0  0  0  0  0  0  0  0  0
   -4.5535    1.0288    0.4556 C   0  0  0  0  0  0  0  0  0  0  0  0
   -3.4182   -1.0926    0.5690 C   0  0  0  0  0  0  0  0  0  0  0  0
   -2.4436   -1.9841   -0.1535 C   0  0  0  0  0  0  0  0  0  0  0  0
    0.4478    2.8081    0.4169 C   0  0  0  0  0  0  0  0  0  0  0  0
    0.7141    1.9369   -0.6469 C   0  0  0  0  0  0  0  0  0  0  0  0
    1.4837    3.4647    1.0840 C   0  0  0  0  0  0  0  0  0  0  0  0
   -1.2771   -2.4048    0.4854 C   0  0  0  0  0  0  0  0  0  0  0  0
   -2.7073   -2.3895   -1.4618 C   0  0  0  0  0  0  0  0  0  0  0  0
    2.0503    1.7357   -1.0311 C   0  0  0  0  0  0  0  0  0  0  0  0
    3.0627    2.4021   -0.3496 C   0  0  0  0  0  0  0  0  0  0  0  0
    2.8189    3.2747    0.7132 C   0  0  0  0  0  0  0  0  0  0  0  0
   -0.3746   -3.2312   -0.1840 C   0  0  0  0  0  0  0  0  0  0  0  0
   -1.8046   -3.2157   -2.1313 C   0  0  0  0  0  0  0  0  0  0  0  0
   -0.6384   -3.6365   -1.4923 C   0  0  0  0  0  0  0  0  0  0  0  0
    2.7282    0.9753   -2.0080 C   0  0  0  0  0  0  0  0  0  0  0  0
    1.3209   -2.7660    1.4173 C   0  0  0  0  0  0  0  0  0  0  0  0
    2.8151   -2.9292    1.4538 C   0  0  0  0  0  0  0  0  0  0  0  0
   -1.8893    2.3896   -0.9145 H   0  0  0  0  0  0  0  0  0  0  0  0
   -3.3742    3.3543    1.5494 H   0  0  0  0  0  0  0  0  0  0  0  0
   -3.1946    4.1915    0.0132 H   0  0  0  0  0  0  0  0  0  0  0  0
   -1.2406    0.3831    0.4346 H   0  0  0  0  0  0  0  0  0  0  0  0
   -2.1989    0.9506    1.7885 H   0  0  0  0  0  0  0  0  0  0  0  0
   -4.4780    2.4657   -1.1563 H   0  0  0  0  0  0  0  0  0  0  0  0
   -5.4010    3.0054    0.2443 H   0  0  0  0  0  0  0  0  0  0  0  0
   -5.4208    0.5412   -0.0060 H   0  0  0  0  0  0  0  0  0  0  0  0
   -4.7188    1.0306    1.5411 H   0  0  0  0  0  0  0  0  0  0  0  0
   -4.4198   -1.4961    0.3626 H   0  0  0  0  0  0  0  0  0  0  0  0
   -3.2966   -1.1737    1.6578 H   0  0  0  0  0  0  0  0  0  0  0  0
   -1.0208    3.5943    1.6311 H   0  0  0  0  0  0  0  0  0  0  0  0
   -0.0505    1.4092   -1.2031 H   0  0  0  0  0  0  0  0  0  0  0  0
    1.2644    4.1397    1.9089 H   0  0  0  0  0  0  0  0  0  0  0  0
   -1.1100   -2.0974    1.5141 H   0  0  0  0  0  0  0  0  0  0  0  0
   -3.6124   -2.0681   -1.9704 H   0  0  0  0  0  0  0  0  0  0  0  0
    3.6248    3.7836    1.2301 H   0  0  0  0  0  0  0  0  0  0  0  0
   -2.0098   -3.5312   -3.1501 H   0  0  0  0  0  0  0  0  0  0  0  0
    0.0612   -4.2799   -2.0189 H   0  0  0  0  0  0  0  0  0  0  0  0
    2.3098    0.3106   -2.7506 H   0  0  0  0  0  0  0  0  0  0  0  0
    5.1700    2.2837   -0.7190 H   0  0  0  0  0  0  0  0  0  0  0  0
    0.9150   -3.0228    2.4011 H   0  0  0  0  0  0  0  0  0  0  0  0
    1.1337   -1.7135    1.1693 H   0  0  0  0  0  0  0  0  0  0  0  0
    4.3339   -2.1620    2.4034 H   0  0  0  0  0  0  0  0  0  0  0  0
  1 23  1  0  0  0  0
  1 27  1  0  0  0  0
  2 28  1  0  0  0  0
  2 52  1  0  0  0  0
  3 28  2  0  0  0  0
  4 10  1  0  0  0  0
  4 12  1  0  0  0  0
  4 13  1  0  0  0  0
  5  8  1  0  0  0  0
  5 15  1  0  0  0  0
  5 40  1  0  0  0  0
  6  7  1  0  0  0  0
  6 21  1  0  0  0  0
  6 49  1  0  0  0  0
  7 26  2  0  0  0  0
  8  9  1  0  0  0  0
  8 10  1  0  0  0  0
  8 29  1  0  0  0  0
  9 11  1  0  0  0  0
  9 30  1  0  0  0  0
  9 31  1  0  0  0  0
 10 32  1  0  0  0  0
 10 33  1  0  0  0  0
 11 12  1  0  0  0  0
 11 34  1  0  0  0  0
 11 35  1  0  0  0  0
 12 36  1  0  0  0  0
 12 37  1  0  0  0  0
 13 14  1  0  0  0  0
 13 38  1  0  0  0  0
 13 39  1  0  0  0  0
 14 18  2  0  0  0  0
 14 19  1  0  0  0  0
 15 16  2  0  0  0  0
 15 17  1  0  0  0  0
 16 20  1  0  0  0  0
 16 41  1  0  0  0  0
 17 22  2  0  0  0  0
 17 42  1  0  0  0  0
 18 23  1  0  0  0  0
 18 43  1  0  0  0  0
 19 24  2  0  0  0  0
 19 44  1  0  0  0  0
 20 21  2  0  0  0  0
 20 26  1  0  0  0  0
 21 22  1  0  0  0  0
 22 45  1  0  0  0  0
 23 25  2  0  0  0  0
 24 25  1  0  0  0  0
 24 46  1  0  0  0  0
 25 47  1  0  0  0  0
 26 48  1  0  0  0  0
 27 28  1  0  0  0  0
 27 50  1  0  0  0  0
 27 51  1  0  0  0  0
M  END
> <PUBCHEM_COMPOUND_CID>
25010076

> <PUBCHEM_CONFORMER_RMSD>
1

> <PUBCHEM_CONFORMER_DIVERSEORDER>
1
16
98
184
173
371
231
354
182
165
213
51
376
299
197
33
324
84
355
326
313
192
367
216
247
300
248
108
373
341
153
214
181
294
361
287
210
283
19
305
269
298
133
38
232
237
24
189
258
163
87
198
52
206
223
8
152
65
193
229
366
156
364
155
289
290
246
249
308
194
370
250
30
145
358
377
279
89
260
127
251
259
245
311
199
270
220
21
273
236
239
286
331
241
183
121
227
202
352
196
315
297
131
291
114
113
37
62
118
325
228
271
314
209
143
2
309
90
303
351
96
327
147
235
225
363
359
321
268
296
224
218
243
265
63
281
375
7
81
215
59
132
230
17
85
9
36
112
317
123
22
369
195
212
357
274
175
78
368
278
332
282
253
262
55
306
104
83
219
266
187
240
66
186
42
168
91
242
57
53
128
312
179
80
137
20
32
169
162
257
211
109
151
335
340
124
56
76
336
58
328
115
263
167
171
180
222
142
111
330
293
255
360
288
48
5
349
64
337
208
97
244
95
323
348
272
11
203
99
72
174
102
353
267
29
233
105
141
356
238
70
68
134
334
166
13
39
170
234
280
4
292
350
221
94
139
135
18
346
75
254
347
295
126
343
338
275
204
157
26
177
3
100
130
344
117
200
372
120
150
73
144
301
191
342
138
146
207
46
110
217
310
318
261
158
67
25
322
304
43
125
160
333
374
93
329
10
161
6
79
285
82
28
149
339
205
176
276
122
284
49
50
77
302
188
106
164
320
41
35
178
47
31
116
119
34
129
71
256
44
154
15
140
86
365
54
190
12
74
201
107
264
40
14
23
69
185
60
92
277
172
148
226
45
159
101
307
345
252
27
319
61
136
88
362
103
316

> <PUBCHEM_MMFF94_PARTIAL_CHARGES>
36
1 -0.36
10 0.27
12 0.27
13 0.41
14 -0.14
15 0.1
16 -0.15
17 -0.15
18 -0.15
19 -0.15
2 -0.65
21 -0.15
22 -0.15
23 0.08
24 -0.15
25 -0.15
26 0.14
27 0.34
28 0.66
3 -0.57
4 -0.81
40 0.4
41 0.15
42 0.15
43 0.15
44 0.15
45 0.15
46 0.15
47 0.15
48 0.15
49 0.27
5 -0.87
52 0.5
6 0.3
7 -0.71
8 0.37

> <PUBCHEM_EFFECTIVE_ROTOR_COUNT>
8.2

> <PUBCHEM_PHARMACOPHORE_FEATURES>
13
1 1 acceptor
1 2 acceptor
1 3 acceptor
1 4 cation
1 5 cation
1 5 donor
1 6 donor
1 7 acceptor
3 2 3 28 anion
5 6 7 20 21 26 rings
6 14 18 19 23 24 25 rings
6 15 16 17 20 21 22 rings
6 4 8 9 10 11 12 rings

> <PUBCHEM_HEAVY_ATOM_COUNT>
28

> <PUBCHEM_ATOM_DEF_STEREO_COUNT>
0

> <PUBCHEM_ATOM_UDEF_STEREO_COUNT>
1

> <PUBCHEM_BOND_DEF_STEREO_COUNT>
0

> <PUBCHEM_BOND_UDEF_STEREO_COUNT>
0

> <PUBCHEM_ISOTOPIC_ATOM_COUNT>
0

> <PUBCHEM_COMPONENT_COUNT>
1

> <PUBCHEM_CACTVS_TAUTO_COUNT>
2

> <PUBCHEM_CONFORMER_ID>
017D9F9C00000001

> <PUBCHEM_MMFF94_ENERGY>
70.4119

> <PUBCHEM_FEATURE_SELFOVERLAP>
66.124

> <PUBCHEM_SHAPE_FINGERPRINT>
10006869 2 18339646741583164643
1100329 8 18265899064110954326
11513181 2 18058717010480106518
11828532 37 14943898881035210450
12156800 1 16557029408187773367
12202916 173 16759418970175810830
12553582 1 17042620175921233685
12788726 201 17906172102644632600
140371 6 17619071634063193273
14114206 34 17831864916263545236
14117953 113 17400357849916457021
14251757 5 17906765796005763900
14659021 117 17836643398436087928
14725015 67 17692526028205349698
15297060 5 17843123602358794234
15322534 239 18263658406212789326
15840311 113 15974404454909506681
15961568 22 17546725954666760911
17627616 140 18408318908336053178
19611394 137 18117578236192225307
22113638 7 18123457294183239475
3298306 158 18410582756102781021
474144 1 18043822991567750750
5282940 2 18333453136020827226
57091435 65 18408326587769181874
6287921 2 16974214592195072034
9709674 26 17696199475190007237

> <PUBCHEM_SHAPE_MULTIPOLES>
538.69
7.66
6.98
1.77
2.37
3.26
0.37
-3.54
1.62
-0.97
-2.18
1.23
1.59
-2.54

> <PUBCHEM_SHAPE_SELFOVERLAP>
1163.181

> <PUBCHEM_SHAPE_VOLUME>
296

> <PUBCHEM_COORDINATE_TYPE>
2
5
10

$$$$
25010078
  -OEChem-05102415123D

 50 53  0     1  0  0  0  0  0999 V2000
    2.4235    3.3444    0.6064 S   0  0  0  0  0  0  0  0  0  0  0  0
    2.7048    4.5229    1.4048 O   0  0  0  0  0  0  0  0  0  0  0  0
    2.3584    3.4319   -0.8390 O   0  0  0  0  0  0  0  0  0  0  0  0
    1.2507   -3.0509   -0.1355 N   0  0  2  0  0  0  0  0  0  0  0  0
   -2.1563   -2.3601    0.6002 N   0  0  0  0  0  0  0  0  0  0  0  0
    3.4905    2.0856    1.0996 N   0  0  0  0  0  0  0  0  0  0  0  0
   -4.8993    2.3041   -0.2729 N   0  0  0  0  0  0  0  0  0  0  0  0
   -4.3025    2.8358   -1.3528 N   0  0  0  0  0  0  0  0  0  0  0  0
   -1.0645   -2.7460   -0.2619 C   0  0  2  0  0  0  0  0  0  0  0  0
   -0.7575   -4.2401   -0.1399 C   0  0  0  0  0  0  0  0  0  0  0  0
    0.2275   -2.0429    0.1467 C   0  0  0  0  0  0  0  0  0  0  0  0
    0.6828   -4.3080    0.3510 C   0  0  0  0  0  0  0  0  0  0  0  0
    2.5262   -2.7385    0.4921 C   0  0  0  0  0  0  0  0  0  0  0  0
    3.0996   -1.4429   -0.0173 C   0  0  0  0  0  0  0  0  0  0  0  0
   -2.8905   -1.1961    0.4375 C   0  0  0  0  0  0  0  0  0  0  0  0
    3.0296   -0.2922    0.7680 C   0  0  0  0  0  0  0  0  0  0  0  0
   -2.5772   -0.3262   -0.6144 C   0  0  0  0  0  0  0  0  0  0  0  0
    3.7009   -1.3936   -1.2749 C   0  0  0  0  0  0  0  0  0  0  0  0
   -3.9315   -0.9078    1.3220 C   0  0  0  0  0  0  0  0  0  0  0  0
   -3.3347    0.8478   -0.7625 C   0  0  0  0  0  0  0  0  0  0  0  0
    3.5612    0.9077    0.2958 C   0  0  0  0  0  0  0  0  0  0  0  0
   -4.3658    1.1105    0.1325 C   0  0  0  0  0  0  0  0  0  0  0  0
   -4.6945    0.2567    1.1876 C   0  0  0  0  0  0  0  0  0  0  0  0
    4.2325   -0.1936   -1.7472 C   0  0  0  0  0  0  0  0  0  0  0  0
    4.1626    0.9570   -0.9618 C   0  0  0  0  0  0  0  0  0  0  0  0
   -3.3511    1.9471   -1.6477 C   0  0  0  0  0  0  0  0  0  0  0  0
    0.8744    2.6875    1.1838 C   0  0  0  0  0  0  0  0  0  0  0  0
   -1.3012   -2.5691   -1.3188 H   0  0  0  0  0  0  0  0  0  0  0  0
   -0.8328   -4.7096   -1.1290 H   0  0  0  0  0  0  0  0  0  0  0  0
   -1.4339   -4.7804    0.5310 H   0  0  0  0  0  0  0  0  0  0  0  0
    0.3739   -1.1311   -0.4415 H   0  0  0  0  0  0  0  0  0  0  0  0
    0.2087   -1.7695    1.2107 H   0  0  0  0  0  0  0  0  0  0  0  0
    1.2051   -5.1811   -0.0527 H   0  0  0  0  0  0  0  0  0  0  0  0
    0.6982   -4.3651    1.4470 H   0  0  0  0  0  0  0  0  0  0  0  0
    2.4375   -2.7027    1.5866 H   0  0  0  0  0  0  0  0  0  0  0  0
    3.2493   -3.5372    0.2792 H   0  0  0  0  0  0  0  0  0  0  0  0
   -2.3443   -2.9207    1.4244 H   0  0  0  0  0  0  0  0  0  0  0  0
    2.5594   -0.3272    1.7482 H   0  0  0  0  0  0  0  0  0  0  0  0
   -1.7778   -0.5045   -1.3229 H   0  0  0  0  0  0  0  0  0  0  0  0
    3.7622   -2.2835   -1.8956 H   0  0  0  0  0  0  0  0  0  0  0  0
   -4.1658   -1.5918    2.1354 H   0  0  0  0  0  0  0  0  0  0  0  0
   -5.5033    0.4823    1.8734 H   0  0  0  0  0  0  0  0  0  0  0  0
    4.7033   -0.1559   -2.7252 H   0  0  0  0  0  0  0  0  0  0  0  0
    4.5931    1.8811   -1.3386 H   0  0  0  0  0  0  0  0  0  0  0  0
    3.5098    1.9014    2.1117 H   0  0  0  0  0  0  0  0  0  0  0  0
   -2.7076    2.1361   -2.4954 H   0  0  0  0  0  0  0  0  0  0  0  0
   -5.6712    2.8095    0.1437 H   0  0  0  0  0  0  0  0  0  0  0  0
    0.9445    2.5003    2.2569 H   0  0  0  0  0  0  0  0  0  0  0  0
    0.6438    1.7710    0.6381 H   0  0  0  0  0  0  0  0  0  0  0  0
    0.1002    3.4333    0.9894 H   0  0  0  0  0  0  0  0  0  0  0  0
  1  2  2  0  0  0  0
  1  3  2  0  0  0  0
  1  6  1  0  0  0  0
  1 27  1  0  0  0  0
  4 11  1  0  0  0  0
  4 12  1  0  0  0  0
  4 13  1  0  0  0  0
  5  9  1  0  0  0  0
  5 15  1  0  0  0  0
  5 37  1  0  0  0  0
  6 21  1  0  0  0  0
  6 45  1  0  0  0  0
  7  8  1  0  0  0  0
  7 22  1  0  0  0  0
  7 47  1  0  0  0  0
  8 26  2  0  0  0  0
  9 10  1  0  0  0  0
  9 11  1  0  0  0  0
  9 28  1  0  0  0  0
 10 12  1  0  0  0  0
 10 29  1  0  0  0  0
 10 30  1  0  0  0  0
 11 31  1  0  0  0  0
 11 32  1  0  0  0  0
 12 33  1  0  0  0  0
 12 34  1  0  0  0  0
 13 14  1  0  0  0  0
 13 35  1  0  0  0  0
 13 36  1  0  0  0  0
 14 16  2  0  0  0  0
 14 18  1  0  0  0  0
 15 17  2  0  0  0  0
 15 19  1  0  0  0  0
 16 21  1  0  0  0  0
 16 38  1  0  0  0  0
 17 20  1  0  0  0  0
 17 39  1  0  0  0  0
 18 24  2  0  0  0  0
 18 40  1  0  0  0  0
 19 23  2  0  0  0  0
 19 41  1  0  0  0  0
 20 22  2  0  0  0  0
 20 26  1  0  0  0  0
 21 25  2  0  0  0  0
 22 23  1  0  0  0  0
 23 42  1  0  0  0  0
 24 25  1  0  0  0  0
 24 43  1  0  0  0  0
 25 44  1  0  0  0  0
 26 46  1  0  0  0  0
 27 48  1  0  0  0  0
 27 49  1  0  0  0  0
 27 50  1  0  0  0  0
M  END
> <PUBCHEM_COMPOUND_CID>
25010078

> <PUBCHEM_CONFORMER_RMSD>
1.2

> <PUBCHEM_CONFORMER_DIVERSEORDER>
1
9
107
183
117
16
169
45
145
18
136
31
69
119
19
185
186
120
60
179
133
132
127
39
148
112
171
73
121
12
49
163
28
147
142
196
118
10
165
181
191
87
91
67
128
170
173
144
152
155
150
41
195
89
65
123
104
75
46
175
43
157
96
57
48
151
33
94
176
149
164
52
106
124
140
56
80
58
194
187
6
192
126
99
53
77
167
93
59
139
129
32
88
17
34
74
113
156
38
162
37
62
131
26
82
115
188
134
174
14
137
44
116
114
135
100
103
98
63
86
50
182
13
2
159
95
101
125
184
153
51
97
22
4
7
110
71
111
108
24
76
154
160
36
109
61
143
35
83
178
190
81
5
90
172
92
42
64
21
102
78
168
79
85
11
29
158
130
3
25
197
66
122
189
166
146
72
40
161
15
47
23
54
105
193
8
84
68
141
138
55
177
27
20
180
30
70

> <PUBCHEM_MMFF94_PARTIAL_CHARGES>
36
1 1.33
11 0.27
12 0.27
13 0.41
14 -0.14
15 0.1
16 -0.15
17 -0.15
18 -0.15
19 -0.15
2 -0.65
21 0.2
22 -0.15
23 -0.15
24 -0.15
25 -0.15
26 0.14
27 0.11
3 -0.65
37 0.4
38 0.15
39 0.15
4 -0.81
40 0.15
41 0.15
42 0.15
43 0.15
44 0.15
45 0.42
46 0.15
47 0.27
5 -0.87
6 -0.76
7 0.3
8 -0.71
9 0.37

> <PUBCHEM_EFFECTIVE_ROTOR_COUNT>
7

> <PUBCHEM_PHARMACOPHORE_FEATURES>
12
1 2 acceptor
1 3 acceptor
1 4 cation
1 5 cation
1 5 donor
1 6 donor
1 7 donor
1 8 acceptor
5 4 9 10 11 12 rings
5 7 8 20 22 26 rings
6 14 16 18 21 24 25 rings
6 15 17 19 20 22 23 rings

> <PUBCHEM_HEAVY_ATOM_COUNT>
27

> <PUBCHEM_ATOM_DEF_STEREO_COUNT>
0

> <PUBCHEM_ATOM_UDEF_STEREO_COUNT>
1

> <PUBCHEM_BOND_DEF_STEREO_COUNT>
0

> <PUBCHEM_BOND_UDEF_STEREO_COUNT>
0

> <PUBCHEM_ISOTOPIC_ATOM_COUNT>
0

> <PUBCHEM_COMPONENT_COUNT>
1

> <PUBCHEM_CACTVS_TAUTO_COUNT>
2

> <PUBCHEM_CONFORMER_ID>
017D9F9E00000001

> <PUBCHEM_MMFF94_ENERGY>
73.1774

> <PUBCHEM_FEATURE_SELFOVERLAP>
61.005

> <PUBCHEM_SHAPE_FINGERPRINT>
10190206 1 17978823141927495646
10256941 240 17617331454711801101
10439779 11 18339905092096608458
10794284 68 10913209272822080649
10842077 115 18196348515725531929
11211813 163 17612332031950502092
12100795 323 18191860330582539437
12769317 202 18265049137359598623
12925494 130 18193558870691123457
12978246 48 18409447028730458216
13122387 1 18411135831419824128
13422730 73 17759472852053798661
14114211 80 18268454397979801279
14251757 17 18410573980941445537
14428016 6 18120913059317209221
14468879 13 18113908121949065059
14848178 96 18336827468476491135
150020 26 18188211983386623277
15082195 135 18195222466185430495
151778 21 18408608062782763465
15210252 30 18262527983520709268
15322535 138 18123177172084726264
15322687 12 18338792321609481097
15961568 22 16970266826245746542
16067690 210 16081943529176443413
16992727 255 18188793720629655116
1768 85 18341059583700817897
17868525 174 17535741897998639618
20398071 114 18267581484352188344
20567600 299 18267010661818724061
20621476 13 18338509716803027499
20764821 26 18337661001153354124
21304303 172 16824454489985372962
21458453 9 17972627608326080795
21860390 5 18055066567029303366
23536364 44 17909005213840042030
23559900 14 17903353711020078971
25019877 29 14894982661023498614
325973 47 17977664217009304073
3298306 158 18337387137290851263
354706 35 17981297274000210973
4371632 12 18196344079451414277
463206 1 17043724618145436040
508706 21 18195243545256995822
5252454 2 18334017211287569302
6371009 1 18194658570484732618
653340 110 17620183678173677408
7808743 9 18117009981805915238

> <PUBCHEM_SHAPE_MULTIPOLES>
522.85
10.28
6.02
1.39
5.83
0.36
-0.23
-6.46
-1.37
-2.56
1.02
-0.07
-0.85
2.21

> <PUBCHEM_SHAPE_SELFOVERLAP>
1118.987

> <PUBCHEM_SHAPE_VOLUME>
292.7

> <PUBCHEM_COORDINATE_TYPE>
2
5
10

$$$$
25010079
  -OEChem-05102415123D

 50 53  0     1  0  0  0  0  0999 V2000
    3.4941    2.3741    0.3543 O   0  0  0  0  0  0  0  0  0  0  0  0
    3.2118    4.8148    1.6993 O   0  0  0  0  0  0  0  0  0  0  0  0
    1.3513   -2.8788    0.0385 N   0  0  2  0  0  0  0  0  0  0  0  0
   -2.0296   -2.1683    0.8693 N   0  0  0  0  0  0  0  0  0  0  0  0
   -4.9648    2.2528   -0.5020 N   0  0  0  0  0  0  0  0  0  0  0  0
   -4.4464    2.6351   -1.6810 N   0  0  0  0  0  0  0  0  0  0  0  0
   -0.9759   -2.6501    0.0081 C   0  0  2  0  0  0  0  0  0  0  0  0
   -0.6150   -4.1027    0.3259 C   0  0  0  0  0  0  0  0  0  0  0  0
    0.3138   -1.8647    0.2329 C   0  0  0  0  0  0  0  0  0  0  0  0
    0.8519   -4.0645    0.7344 C   0  0  0  0  0  0  0  0  0  0  0  0
    2.6492   -2.4483    0.5369 C   0  0  0  0  0  0  0  0  0  0  0  0
    3.1516   -1.2277   -0.1875 C   0  0  0  0  0  0  0  0  0  0  0  0
   -2.8086   -1.0581    0.5845 C   0  0  0  0  0  0  0  0  0  0  0  0
   -2.5825   -0.3438   -0.5987 C   0  0  0  0  0  0  0  0  0  0  0  0
    3.0887    0.0232    0.4265 C   0  0  0  0  0  0  0  0  0  0  0  0
   -3.8073   -0.6684    1.4790 C   0  0  0  0  0  0  0  0  0  0  0  0
    3.6800   -1.3481   -1.4727 C   0  0  0  0  0  0  0  0  0  0  0  0
   -3.3841    0.7778   -0.8691 C   0  0  0  0  0  0  0  0  0  0  0  0
   -4.3716    1.1440    0.0387 C   0  0  0  0  0  0  0  0  0  0  0  0
   -4.6134    0.4458    1.2238 C   0  0  0  0  0  0  0  0  0  0  0  0
    3.5546    1.1536   -0.2448 C   0  0  0  0  0  0  0  0  0  0  0  0
    4.1457   -0.2176   -2.1441 C   0  0  0  0  0  0  0  0  0  0  0  0
    4.0829    1.0332   -1.5301 C   0  0  0  0  0  0  0  0  0  0  0  0
   -3.4850    1.7354   -1.9010 C   0  0  0  0  0  0  0  0  0  0  0  0
    2.4339    2.5890    1.2848 C   0  0  0  0  0  0  0  0  0  0  0  0
    2.0748    4.0624    1.2940 C   0  0  0  0  0  0  0  0  0  0  0  0
   -1.2767   -2.6349   -1.0471 H   0  0  0  0  0  0  0  0  0  0  0  0
   -1.2352   -4.5551    1.1070 H   0  0  0  0  0  0  0  0  0  0  0  0
   -0.7303   -4.7133   -0.5788 H   0  0  0  0  0  0  0  0  0  0  0  0
    0.3457   -1.4396    1.2456 H   0  0  0  0  0  0  0  0  0  0  0  0
    0.3979   -1.0455   -0.4885 H   0  0  0  0  0  0  0  0  0  0  0  0
    0.9302   -3.9606    1.8243 H   0  0  0  0  0  0  0  0  0  0  0  0
    1.3785   -4.9746    0.4304 H   0  0  0  0  0  0  0  0  0  0  0  0
    3.3843   -3.2523    0.3977 H   0  0  0  0  0  0  0  0  0  0  0  0
    2.6210   -2.2570    1.6185 H   0  0  0  0  0  0  0  0  0  0  0  0
   -2.1534   -2.6069    1.7756 H   0  0  0  0  0  0  0  0  0  0  0  0
   -1.8188   -0.6050   -1.3207 H   0  0  0  0  0  0  0  0  0  0  0  0
    2.6974    0.0844    1.4381 H   0  0  0  0  0  0  0  0  0  0  0  0
   -3.9739   -1.2317    2.3950 H   0  0  0  0  0  0  0  0  0  0  0  0
    3.7343   -2.3173   -1.9615 H   0  0  0  0  0  0  0  0  0  0  0  0
   -5.3895    0.7500    1.9171 H   0  0  0  0  0  0  0  0  0  0  0  0
    4.5571   -0.3113   -3.1448 H   0  0  0  0  0  0  0  0  0  0  0  0
    4.4471    1.9104   -2.0579 H   0  0  0  0  0  0  0  0  0  0  0  0
   -2.8965    1.8136   -2.8042 H   0  0  0  0  0  0  0  0  0  0  0  0
   -5.7280    2.7953   -0.1172 H   0  0  0  0  0  0  0  0  0  0  0  0
    2.7805    2.2842    2.2789 H   0  0  0  0  0  0  0  0  0  0  0  0
    1.5305    2.0290    1.0128 H   0  0  0  0  0  0  0  0  0  0  0  0
    1.7913    4.3975    0.2913 H   0  0  0  0  0  0  0  0  0  0  0  0
    1.2550    4.2584    1.9914 H   0  0  0  0  0  0  0  0  0  0  0  0
    2.9501    5.7513    1.6945 H   0  0  0  0  0  0  0  0  0  0  0  0
  1 21  1  0  0  0  0
  1 25  1  0  0  0  0
  2 26  1  0  0  0  0
  2 50  1  0  0  0  0
  3  9  1  0  0  0  0
  3 10  1  0  0  0  0
  3 11  1  0  0  0  0
  4  7  1  0  0  0  0
  4 13  1  0  0  0  0
  4 36  1  0  0  0  0
  5  6  1  0  0  0  0
  5 19  1  0  0  0  0
  5 45  1  0  0  0  0
  6 24  2  0  0  0  0
  7  8  1  0  0  0  0
  7  9  1  0  0  0  0
  7 27  1  0  0  0  0
  8 10  1  0  0  0  0
  8 28  1  0  0  0  0
  8 29  1  0  0  0  0
  9 30  1  0  0  0  0
  9 31  1  0  0  0  0
 10 32  1  0  0  0  0
 10 33  1  0  0  0  0
 11 12  1  0  0  0  0
 11 34  1  0  0  0  0
 11 35  1  0  0  0  0
 12 15  2  0  0  0  0
 12 17  1  0  0  0  0
 13 14  2  0  0  0  0
 13 16  1  0  0  0  0
 14 18  1  0  0  0  0
 14 37  1  0  0  0  0
 15 21  1  0  0  0  0
 15 38  1  0  0  0  0
 16 20  2  0  0  0  0
 16 39  1  0  0  0  0
 17 22  2  0  0  0  0
 17 40  1  0  0  0  0
 18 19  2  0  0  0  0
 18 24  1  0  0  0  0
 19 20  1  0  0  0  0
 20 41  1  0  0  0  0
 21 23  2  0  0  0  0
 22 23  1  0  0  0  0
 22 42  1  0  0  0  0
 23 43  1  0  0  0  0
 24 44  1  0  0  0  0
 25 26  1  0  0  0  0
 25 46  1  0  0  0  0
 25 47  1  0  0  0  0
 26 48  1  0  0  0  0
 26 49  1  0  0  0  0
M  END
> <PUBCHEM_COMPOUND_CID>
25010079

> <PUBCHEM_CONFORMER_RMSD>
1.2

> <PUBCHEM_CONFORMER_DIVERSEORDER>
1
90
35
100
103
38
50
71
80
21
101
55
91
26
23
16
92
85
69
84
70
107
74
40
42
36
62
68
94
93
86
97
102
105
108
14
33
30
65
53
29
20
66
81
27
104
61
10
114
56
58
41
8
110
44
64
112
54
83
39
109
98
11
17
77
5
34
88
87
47
106
2
96
45
25
78
15
37
59
4
31
67
51
111
52
75
95
46
63
43
12
22
76
72
28
49
48
82
9
18
99
7
57
24
6
19
60
79
89
13
3
32
113
73

> <PUBCHEM_MMFF94_PARTIAL_CHARGES>
35
1 -0.36
10 0.27
11 0.41
12 -0.14
13 0.1
14 -0.15
15 -0.15
16 -0.15
17 -0.15
19 -0.15
2 -0.68
20 -0.15
21 0.08
22 -0.15
23 -0.15
24 0.14
25 0.28
26 0.28
3 -0.81
36 0.4
37 0.15
38 0.15
39 0.15
4 -0.87
40 0.15
41 0.15
42 0.15
43 0.15
44 0.15
45 0.27
5 0.3
50 0.4
6 -0.71
7 0.37
9 0.27

> <PUBCHEM_EFFECTIVE_ROTOR_COUNT>
8

> <PUBCHEM_PHARMACOPHORE_FEATURES>
12
1 1 acceptor
1 2 acceptor
1 2 donor
1 3 cation
1 4 cation
1 4 donor
1 5 donor
1 6 acceptor
5 3 7 8 9 10 rings
5 5 6 18 19 24 rings
6 12 15 17 21 22 23 rings
6 13 14 16 18 19 20 rings

> <PUBCHEM_HEAVY_ATOM_COUNT>
26

> <PUBCHEM_ATOM_DEF_STEREO_COUNT>
0

> <PUBCHEM_ATOM_UDEF_STEREO_COUNT>
1

> <PUBCHEM_BOND_DEF_STEREO_COUNT>
0

> <PUBCHEM_BOND_UDEF_STEREO_COUNT>
0

> <PUBCHEM_ISOTOPIC_ATOM_COUNT>
0

> <PUBCHEM_COMPONENT_COUNT>
1

> <PUBCHEM_CACTVS_TAUTO_COUNT>
2

> <PUBCHEM_CONFORMER_ID>
017D9F9F00000001

> <PUBCHEM_MMFF94_ENERGY>
75.3082

> <PUBCHEM_FEATURE_SELFOVERLAP>
60.991

> <PUBCHEM_SHAPE_FINGERPRINT>
10256941 240 17617332558476159249
10670039 82 18042703843339286486
10794284 68 11273497247301445419
10842077 115 18196914772777365121
11595378 159 15430042015541418727
11720765 8 18056492643139401878
12100795 323 18120928670684793197
12769317 202 18263363594534462342
12925494 130 18117842093339693853
14347329 18 18041574627938801940
14468879 13 17895485747613531179
14848178 96 18261674762096394663
14932701 244 17769070665004071567
150020 26 18041838389932300366
151778 21 18260834756492502742
15322535 138 18122615325953756800
15322687 12 18338231570615907937
15961568 22 16825590900119046636
16992727 255 18043273352398436852
1768 85 18340496642348010673
17868525 174 17461432521390082194
19309040 13 16914285010991652857
20398071 114 18267582592511903032
20567600 299 18193826059803994197
21033648 29 18408044026234433748
21860390 5 17907854003264117343
22122407 14 18055649313373267377
23536364 44 17908161888426747622
23559900 14 17828199900838746499
25019877 29 14822929460731976134
3187 122 17396137305898612851
3298306 158 18336263440607461343
354706 35 17838867654503645837
4371632 12 18196065907320371909
508706 21 18193559089095606182
5252454 2 18335149716674608894
66674814 147 15883194420012508228
7399639 24 17407689870851778390
7808743 9 17971209255278881798

> <PUBCHEM_SHAPE_MULTIPOLES>
503.41
10.67
5.71
1.72
6.08
1.17
0.49
7.7
2.7
-3.49
-2.79
-0.31
1.32
3.14

> <PUBCHEM_SHAPE_SELFOVERLAP>
1089.285

> <PUBCHEM_SHAPE_VOLUME>
279.3

> <PUBCHEM_COORDINATE_TYPE>
2
5
10

$$$$
57446065
  -OEChem-05102415123D

 47 50  0     1  0  0  0  0  0999 V2000
   -3.0752   -4.3902   -0.6749 Cl  0  0  0  0  0  0  0  0  0  0  0  0
   -1.9550    2.1958   -0.1093 N   0  0  2  0  0  0  0  0  0  0  0  0
    1.7440    2.4201    0.3973 N   0  0  0  0  0  0  0  0  0  0  0  0
    4.4100   -2.3372   -0.1266 N   0  0  0  0  0  0  0  0  0  0  0  0
    3.6205   -3.0657   -0.9333 N   0  0  0  0  0  0  0  0  0  0  0  0
   -1.9862   -3.1587    1.8865 N   0  0  0  0  0  0  0  0  0  0  0  0
    0.4786    2.6323   -0.2743 C   0  0  2  0  0  0  0  0  0  0  0  0
    0.2138    4.1323   -0.4089 C   0  0  0  0  0  0  0  0  0  0  0  0
   -0.6462    1.9462    0.5123 C   0  0  0  0  0  0  0  0  0  0  0  0
   -1.1799    4.3784   -0.9762 C   0  0  0  0  0  0  0  0  0  0  0  0
   -2.2469    3.6344   -0.1723 C   0  0  0  0  0  0  0  0  0  0  0  0
   -3.0103    1.4912    0.6186 C   0  0  0  0  0  0  0  0  0  0  0  0
    2.4693    1.2456    0.3086 C   0  0  0  0  0  0  0  0  0  0  0  0
   -3.0208    0.0187    0.3048 C   0  0  0  0  0  0  0  0  0  0  0  0
    1.9748    0.1890   -0.4664 C   0  0  0  0  0  0  0  0  0  0  0  0
    3.6816    1.1294    0.9912 C   0  0  0  0  0  0  0  0  0  0  0  0
   -2.5047   -0.8940    1.2245 C   0  0  0  0  0  0  0  0  0  0  0  0
   -3.5473   -0.4328   -0.9056 C   0  0  0  0  0  0  0  0  0  0  0  0
    2.7263   -0.9955   -0.5438 C   0  0  0  0  0  0  0  0  0  0  0  0
    3.9302   -1.0845    0.1460 C   0  0  0  0  0  0  0  0  0  0  0  0
    4.4410   -0.0432    0.9240 C   0  0  0  0  0  0  0  0  0  0  0  0
   -2.5153   -2.2583    0.9343 C   0  0  0  0  0  0  0  0  0  0  0  0
   -3.5578   -1.7970   -1.1958 C   0  0  0  0  0  0  0  0  0  0  0  0
   -3.0418   -2.7098   -0.2759 C   0  0  0  0  0  0  0  0  0  0  0  0
    2.5972   -2.2462   -1.1849 C   0  0  0  0  0  0  0  0  0  0  0  0
    0.5131    2.2432   -1.3005 H   0  0  0  0  0  0  0  0  0  0  0  0
    0.9686    4.5975   -1.0543 H   0  0  0  0  0  0  0  0  0  0  0  0
    0.2964    4.6218    0.5706 H   0  0  0  0  0  0  0  0  0  0  0  0
   -0.4511    0.8717    0.5584 H   0  0  0  0  0  0  0  0  0  0  0  0
   -0.6404    2.3034    1.5524 H   0  0  0  0  0  0  0  0  0  0  0  0
   -1.3958    5.4528   -0.9718 H   0  0  0  0  0  0  0  0  0  0  0  0
   -1.2122    4.0504   -2.0229 H   0  0  0  0  0  0  0  0  0  0  0  0
   -3.2136    3.7985   -0.6639 H   0  0  0  0  0  0  0  0  0  0  0  0
   -2.3162    4.0631    0.8362 H   0  0  0  0  0  0  0  0  0  0  0  0
   -3.9976    1.8777    0.3285 H   0  0  0  0  0  0  0  0  0  0  0  0
   -2.9427    1.6635    1.7016 H   0  0  0  0  0  0  0  0  0  0  0  0
    2.0854    3.1398    1.0252 H   0  0  0  0  0  0  0  0  0  0  0  0
    1.0462    0.2283   -1.0219 H   0  0  0  0  0  0  0  0  0  0  0  0
    4.0557    1.9573    1.5903 H   0  0  0  0  0  0  0  0  0  0  0  0
   -2.0943   -0.5415    2.1683 H   0  0  0  0  0  0  0  0  0  0  0  0
   -3.9521    0.2686   -1.6303 H   0  0  0  0  0  0  0  0  0  0  0  0
    5.3828   -0.1354    1.4533 H   0  0  0  0  0  0  0  0  0  0  0  0
   -3.9717   -2.1324   -2.1434 H   0  0  0  0  0  0  0  0  0  0  0  0
    1.7982   -2.5932   -1.8249 H   0  0  0  0  0  0  0  0  0  0  0  0
    5.2695   -2.7559    0.2062 H   0  0  0  0  0  0  0  0  0  0  0  0
   -1.6059   -2.8128    2.7574 H   0  0  0  0  0  0  0  0  0  0  0  0
   -1.9840   -4.1510    1.6911 H   0  0  0  0  0  0  0  0  0  0  0  0
  1 24  1  0  0  0  0
  2  9  1  0  0  0  0
  2 11  1  0  0  0  0
  2 12  1  0  0  0  0
  3  7  1  0  0  0  0
  3 13  1  0  0  0  0
  3 37  1  0  0  0  0
  4  5  1  0  0  0  0
  4 20  1  0  0  0  0
  4 45  1  0  0  0  0
  5 25  2  0  0  0  0
  6 22  1  0  0  0  0
  6 46  1  0  0  0  0
  6 47  1  0  0  0  0
  7  8  1  0  0  0  0
  7  9  1  0  0  0  0
  7 26  1  0  0  0  0
  8 10  1  0  0  0  0
  8 27  1  0  0  0  0
  8 28  1  0  0  0  0
  9 29  1  0  0  0  0
  9 30  1  0  0  0  0
 10 11  1  0  0  0  0
 10 31  1  0  0  0  0
 10 32  1  0  0  0  0
 11 33  1  0  0  0  0
 11 34  1  0  0  0  0
 12 14  1  0  0  0  0
 12 35  1  0  0  0  0
 12 36  1  0  0  0  0
 13 15  2  0  0  0  0
 13 16  1  0  0  0  0
 14 17  2  0  0  0  0
 14 18  1  0  0  0  0
 15 19  1  0  0  0  0
 15 38  1  0  0  0  0
 16 21  2  0  0  0  0
 16 39  1  0  0  0  0
 17 22  1  0  0  0  0
 17 40  1  0  0  0  0
 18 23  2  0  0  0  0
 18 41  1  0  0  0  0
 19 20  2  0  0  0  0
 19 25  1  0  0  0  0
 20 21  1  0  0  0  0
 21 42  1  0  0  0  0
 22 24  2  0  0  0  0
 23 24  1  0  0  0  0
 23 43  1  0  0  0  0
 25 44  1  0  0  0  0
M  END
> <PUBCHEM_COMPOUND_CID>
57446065

> <PUBCHEM_CONFORMER_RMSD>
0.8

> <PUBCHEM_CONFORMER_DIVERSEORDER>
1
285
312
33
69
236
64
201
262
302
212
89
203
232
114
133
123
241
240
286
188
54
60
218
110
304
355
268
315
156
248
343
301
261
284
44
342
234
130
90
299
127
320
219
171
132
318
360
81
362
357
339
175
237
233
41
161
176
254
209
112
113
266
25
155
80
260
65
273
296
288
306
269
220
40
257
247
216
225
369
256
319
331
202
142
32
4
361
154
38
10
76
231
267
213
85
96
270
321
158
314
215
245
226
354
349
308
128
223
235
148
365
293
324
62
198
255
305
359
180
106
159
125
160
181
297
149
168
334
116
35
22
271
46
332
124
141
56
345
368
229
121
336
59
115
294
166
100
134
63
136
278
102
172
36
259
322
276
68
87
67
45
330
292
363
88
138
185
246
244
222
43
340
167
224
274
290
347
265
221
27
97
228
200
251
92
283
346
264
129
137
358
352
162
184
11
282
82
163
353
99
84
151
307
73
174
131
335
211
49
272
77
150
249
94
328
194
21
47
311
103
7
291
303
327
146
295
186
39
104
75
144
50
183
187
230
117
95
17
78
366
364
227
145
263
280
250
109
52
195
51
258
210
101
329
108
192
29
13
28
344
326
298
323
205
42
239
325
153
277
18
66
2
122
23
53
214
6
24
206
367
310
139
252
317
70
86
197
120
173
281
191
119
37
337
5
3
55
356
279
350
34
190
12
300
341
143
164
61
147
126
16
111
31
207
179
79
14
193
57
338
348
243
170
217
169
189
316
333
105
152
287
71
351
238
91
107
118
204
72
58
30
26
182
140
208
242
196
83
289
157
98
20
199
178
19
275
9
93
253
313
15
8
74
165
309
48
135
177

> <PUBCHEM_MMFF94_PARTIAL_CHARGES>
33
1 -0.18
11 0.27
12 0.41
13 0.1
14 -0.14
15 -0.15
16 -0.15
17 -0.15
18 -0.15
2 -0.81
20 -0.15
21 -0.15
22 0.1
23 -0.15
24 0.18
25 0.14
3 -0.87
37 0.4
38 0.15
39 0.15
4 0.3
40 0.15
41 0.15
42 0.15
43 0.15
44 0.15
45 0.27
46 0.4
47 0.4
5 -0.71
6 -0.9
7 0.37
9 0.27

> <PUBCHEM_EFFECTIVE_ROTOR_COUNT>
5.2

> <PUBCHEM_PHARMACOPHORE_FEATURES>
11
1 2 cation
1 3 cation
1 3 donor
1 4 donor
1 5 acceptor
1 6 cation
1 6 donor
5 4 5 19 20 25 rings
6 13 15 16 19 20 21 rings
6 14 17 18 22 23 24 rings
6 2 7 8 9 10 11 rings

> <PUBCHEM_HEAVY_ATOM_COUNT>
25

> <PUBCHEM_ATOM_DEF_STEREO_COUNT>
0

> <PUBCHEM_ATOM_UDEF_STEREO_COUNT>
1

> <PUBCHEM_BOND_DEF_STEREO_COUNT>
0

> <PUBCHEM_BOND_UDEF_STEREO_COUNT>
0

> <PUBCHEM_ISOTOPIC_ATOM_COUNT>
0

> <PUBCHEM_COMPONENT_COUNT>
1

> <PUBCHEM_CACTVS_TAUTO_COUNT>
2

> <PUBCHEM_CONFORMER_ID>
036C8EB100000001

> <PUBCHEM_MMFF94_ENERGY>
70.7556

> <PUBCHEM_FEATURE_SELFOVERLAP>
55.913

> <PUBCHEM_SHAPE_FINGERPRINT>
10764073 3 17971224520146559635
107951 10 16883878811621103209
10940486 97 18046078068853122196
1100329 8 14521157812504864388
11014199 57 18339646757908088831
11552529 35 17917709093423631472
12422481 6 18126314990103942617
12553582 1 18265066875605965133
13122387 1 16898500009551137222
13402501 40 18053950545583573076
1361 2 16609972289120248183
138480 1 15600607802517113637
14251757 5 18050312292041630206
14659021 117 18337657625657037170
14725015 67 18123750851177617823
15927050 60 17331677947732724573
16719943 64 17616538354635315278
19141452 34 18342459197362910273
19315092 285 16627694041358134263
19930381 70 17907012129823931935
20775530 9 18341334478091441451
21133410 52 17405692062850944558
22113638 7 17765706210841176230
23559900 14 18122613122967661281
3298306 158 17183061341307888517
445580 102 17686626048863626539
469060 322 17554566898670452652
5265222 85 17688336498589124324
5309563 4 17978794841517296387
550186 72 18336545010617914924
56633871 153 18341059592312221635
57527585 103 17823995613139600019
613672 6 18266161997798335075
9709674 26 18340484478615635856

> <PUBCHEM_SHAPE_MULTIPOLES>
491.45
8.51
6.32
1.21
3.82
2.85
0.18
-7.85
0.29
-2.6
-1.63
-0.41
-0.59
0.8

> <PUBCHEM_SHAPE_SELFOVERLAP>
1059.554

> <PUBCHEM_SHAPE_VOLUME>
270.1

> <PUBCHEM_COORDINATE_TYPE>
2
5
10

$$$$
25010081
  -OEChem-05102415123D

 53 56  0     1  0  0  0  0  0999 V2000
   -3.8731   -1.7014    0.2660 O   0  0  0  0  0  0  0  0  0  0  0  0
   -5.0676   -3.0788    2.3925 O   0  0  0  0  0  0  0  0  0  0  0  0
   -0.9989    2.6677   -0.0315 N   0  0  1  0  0  0  0  0  0  0  0  0
    2.6506    2.0029    0.4100 N   0  0  0  0  0  0  0  0  0  0  0  0
    4.1033   -3.2325   -0.2926 N   0  0  0  0  0  0  0  0  0  0  0  0
    2.9864   -3.9218   -0.0059 N   0  0  0  0  0  0  0  0  0  0  0  0
    1.3046    2.3447    0.8172 C   0  0  1  0  0  0  0  0  0  0  0  0
    1.2917    3.7435    1.4335 C   0  0  0  0  0  0  0  0  0  0  0  0
    0.3684    2.2675   -0.3949 C   0  0  0  0  0  0  0  0  0  0  0  0
   -0.1394    4.1794    1.7286 C   0  0  0  0  0  0  0  0  0  0  0  0
   -1.0290    4.0404    0.4922 C   0  0  0  0  0  0  0  0  0  0  0  0
   -1.8929    2.5394   -1.1821 C   0  0  0  0  0  0  0  0  0  0  0  0
   -2.2664    1.1047   -1.4451 C   0  0  0  0  0  0  0  0  0  0  0  0
    3.0840    0.7038    0.2155 C   0  0  0  0  0  0  0  0  0  0  0  0
    2.1919   -0.3568    0.4172 C   0  0  0  0  0  0  0  0  0  0  0  0
    4.4021    0.4681   -0.1798 C   0  0  0  0  0  0  0  0  0  0  0  0
   -2.9042    0.3571   -0.4552 C   0  0  0  0  0  0  0  0  0  0  0  0
   -1.9747    0.5233   -2.6790 C   0  0  0  0  0  0  0  0  0  0  0  0
    2.6517   -1.6685    0.2129 C   0  0  0  0  0  0  0  0  0  0  0  0
    3.9692   -1.8749   -0.1806 C   0  0  0  0  0  0  0  0  0  0  0  0
    4.8747   -0.8319   -0.3871 C   0  0  0  0  0  0  0  0  0  0  0  0
   -3.2503   -0.9719   -0.6992 C   0  0  0  0  0  0  0  0  0  0  0  0
   -2.3207   -0.8056   -2.9231 C   0  0  0  0  0  0  0  0  0  0  0  0
   -2.9585   -1.5532   -1.9332 C   0  0  0  0  0  0  0  0  0  0  0  0
    2.1056   -2.9671    0.3013 C   0  0  0  0  0  0  0  0  0  0  0  0
   -3.5809   -1.3679    1.6223 C   0  0  0  0  0  0  0  0  0  0  0  0
   -3.7275   -2.6100    2.4799 C   0  0  0  0  0  0  0  0  0  0  0  0
    0.9543    1.6682    1.6081 H   0  0  0  0  0  0  0  0  0  0  0  0
    1.8869    3.7617    2.3543 H   0  0  0  0  0  0  0  0  0  0  0  0
    1.7550    4.4652    0.7478 H   0  0  0  0  0  0  0  0  0  0  0  0
    0.7544    2.9099   -1.1999 H   0  0  0  0  0  0  0  0  0  0  0  0
    0.3631    1.2496   -0.7966 H   0  0  0  0  0  0  0  0  0  0  0  0
   -0.1448    5.2196    2.0731 H   0  0  0  0  0  0  0  0  0  0  0  0
   -0.5468    3.5701    2.5454 H   0  0  0  0  0  0  0  0  0  0  0  0
   -0.7099    4.7579   -0.2753 H   0  0  0  0  0  0  0  0  0  0  0  0
   -2.0525    4.3068    0.7827 H   0  0  0  0  0  0  0  0  0  0  0  0
   -1.4654    3.0134   -2.0758 H   0  0  0  0  0  0  0  0  0  0  0  0
   -2.8386    3.0661   -0.9917 H   0  0  0  0  0  0  0  0  0  0  0  0
    3.2938    2.7542    0.1847 H   0  0  0  0  0  0  0  0  0  0  0  0
    1.1631   -0.2314    0.7311 H   0  0  0  0  0  0  0  0  0  0  0  0
    5.0861    1.3004   -0.3336 H   0  0  0  0  0  0  0  0  0  0  0  0
   -3.1504    0.8440    0.4844 H   0  0  0  0  0  0  0  0  0  0  0  0
   -1.4768    1.0932   -3.4589 H   0  0  0  0  0  0  0  0  0  0  0  0
    5.8980   -1.0169   -0.6942 H   0  0  0  0  0  0  0  0  0  0  0  0
   -2.0929   -1.2586   -3.8836 H   0  0  0  0  0  0  0  0  0  0  0  0
   -3.2254   -2.5882   -2.1289 H   0  0  0  0  0  0  0  0  0  0  0  0
    1.1009   -3.2554    0.5768 H   0  0  0  0  0  0  0  0  0  0  0  0
    4.9299   -3.7520   -0.5605 H   0  0  0  0  0  0  0  0  0  0  0  0
   -4.2935   -0.6027    1.9506 H   0  0  0  0  0  0  0  0  0  0  0  0
   -2.5536   -1.0016    1.7415 H   0  0  0  0  0  0  0  0  0  0  0  0
   -3.0695   -3.4076    2.1207 H   0  0  0  0  0  0  0  0  0  0  0  0
   -3.4983   -2.3893    3.5265 H   0  0  0  0  0  0  0  0  0  0  0  0
   -5.1285   -3.8728    2.9506 H   0  0  0  0  0  0  0  0  0  0  0  0
  1 22  1  0  0  0  0
  1 26  1  0  0  0  0
  2 27  1  0  0  0  0
  2 53  1  0  0  0  0
  3  9  1  0  0  0  0
  3 11  1  0  0  0  0
  3 12  1  0  0  0  0
  4  7  1  0  0  0  0
  4 14  1  0  0  0  0
  4 39  1  0  0  0  0
  5  6  1  0  0  0  0
  5 20  1  0  0  0  0
  5 48  1  0  0  0  0
  6 25  2  0  0  0  0
  7  8  1  0  0  0  0
  7  9  1  0  0  0  0
  7 28  1  0  0  0  0
  8 10  1  0  0  0  0
  8 29  1  0  0  0  0
  8 30  1  0  0  0  0
  9 31  1  0  0  0  0
  9 32  1  0  0  0  0
 10 11  1  0  0  0  0
 10 33  1  0  0  0  0
 10 34  1  0  0  0  0
 11 35  1  0  0  0  0
 11 36  1  0  0  0  0
 12 13  1  0  0  0  0
 12 37  1  0  0  0  0
 12 38  1  0  0  0  0
 13 17  2  0  0  0  0
 13 18  1  0  0  0  0
 14 15  2  0  0  0  0
 14 16  1  0  0  0  0
 15 19  1  0  0  0  0
 15 40  1  0  0  0  0
 16 21  2  0  0  0  0
 16 41  1  0  0  0  0
 17 22  1  0  0  0  0
 17 42  1  0  0  0  0
 18 23  2  0  0  0  0
 18 43  1  0  0  0  0
 19 20  2  0  0  0  0
 19 25  1  0  0  0  0
 20 21  1  0  0  0  0
 21 44  1  0  0  0  0
 22 24  2  0  0  0  0
 23 24  1  0  0  0  0
 23 45  1  0  0  0  0
 24 46  1  0  0  0  0
 25 47  1  0  0  0  0
 26 27  1  0  0  0  0
 26 49  1  0  0  0  0
 26 50  1  0  0  0  0
 27 51  1  0  0  0  0
 27 52  1  0  0  0  0
M  END
> <PUBCHEM_COMPOUND_CID>
25010081

> <PUBCHEM_CONFORMER_RMSD>
1

> <PUBCHEM_CONFORMER_DIVERSEORDER>
1
104
207
37
39
115
235
70
237
63
9
21
198
75
59
240
29
102
242
48
134
81
117
177
164
201
180
184
122
229
170
97
38
96
41
87
17
31
58
89
179
147
225
213
208
226
216
57
192
85
36
125
196
116
61
186
108
69
34
56
46
95
142
94
101
163
30
74
35
187
154
120
205
66
84
173
109
92
212
162
19
99
211
14
202
239
127
228
60
230
200
40
158
190
144
182
169
106
50
26
195
76
233
161
194
68
231
224
119
215
185
98
33
204
155
16
118
25
209
62
128
105
219
143
159
123
218
23
80
238
54
53
234
82
133
232
3
130
167
47
78
49
131
151
197
103
145
175
135
2
83
88
152
112
4
93
181
77
28
188
71
138
107
6
203
51
15
124
13
110
236
146
64
132
72
8
90
174
166
55
191
223
140
22
220
241
27
217
221
32
222
43
156
114
139
148
86
136
149
165
150
5
111
10
172
141
183
65
113
227
137
199
67
206
210
42
168
24
129
193
52
126
79
100
153
18
178
214
157
171
91
73
44
176
11
160
45
7
121
12
20
189

> <PUBCHEM_MMFF94_PARTIAL_CHARGES>
35
1 -0.36
11 0.27
12 0.41
13 -0.14
14 0.1
15 -0.15
16 -0.15
17 -0.15
18 -0.15
2 -0.68
20 -0.15
21 -0.15
22 0.08
23 -0.15
24 -0.15
25 0.14
26 0.28
27 0.28
3 -0.81
39 0.4
4 -0.87
40 0.15
41 0.15
42 0.15
43 0.15
44 0.15
45 0.15
46 0.15
47 0.15
48 0.27
5 0.3
53 0.4
6 -0.71
7 0.37
9 0.27

> <PUBCHEM_EFFECTIVE_ROTOR_COUNT>
8.2

> <PUBCHEM_PHARMACOPHORE_FEATURES>
12
1 1 acceptor
1 2 acceptor
1 2 donor
1 3 cation
1 4 cation
1 4 donor
1 5 donor
1 6 acceptor
5 5 6 19 20 25 rings
6 13 17 18 22 23 24 rings
6 14 15 16 19 20 21 rings
6 3 7 8 9 10 11 rings

> <PUBCHEM_HEAVY_ATOM_COUNT>
27

> <PUBCHEM_ATOM_DEF_STEREO_COUNT>
1

> <PUBCHEM_ATOM_UDEF_STEREO_COUNT>
0

> <PUBCHEM_BOND_DEF_STEREO_COUNT>
0

> <PUBCHEM_BOND_UDEF_STEREO_COUNT>
0

> <PUBCHEM_ISOTOPIC_ATOM_COUNT>
0

> <PUBCHEM_COMPONENT_COUNT>
1

> <PUBCHEM_CACTVS_TAUTO_COUNT>
2

> <PUBCHEM_CONFORMER_ID>
017D9FA100000001

> <PUBCHEM_MMFF94_ENERGY>
71.4163

> <PUBCHEM_FEATURE_SELFOVERLAP>
60.991

> <PUBCHEM_SHAPE_FINGERPRINT>
10064457 181 17043179831566466409
10616163 171 17841140066233649716
107951 10 17901662666578687581
10928967 22 18273215322231087318
114674 6 17980735432158277668
12128747 34 18335703888669568289
12156800 1 16678164609932632843
12553582 1 18200574943906412052
12788726 201 17699554853949835868
13135754 10 17983608245519608845
13402501 40 17969788664296058275
1361 2 17690818474316802735
14026016 164 16461065875620161826
14279260 333 17760366592205598174
14363568 33 18267311021988252688
14844126 61 17698416863867648046
15274700 242 15594136089798630546
15403338 16 17985284103879451547
15721738 202 17459775750444964102
19315092 285 15908771692956461047
19734167 9 16615596273415151177
1979834 28 17468210272283727131
19930381 70 18124012779652474639
20501277 246 17389131093558796539
20578428 11 13698974457068621875
21133410 38 16975056290143939543
21315759 227 18114174229421961970
21796203 349 18267873967884337656
23466295 7 18118697525368178595
23728640 28 17411041860249154676
3383291 50 17769636621671554503
3737641 26 18341342149324901622
445580 102 18409169900524648206
463206 1 18341600568727620990
5309563 4 18339080500961692343
6287921 2 17543643375171232547
86090 222 17824827986418048531
9795274 37 18262788558927945210

> <PUBCHEM_SHAPE_MULTIPOLES>
523.98
9.1
5.8
2.3
2.54
2.86
-0.28
-9.79
1.35
0.73
3.28
-4.22
-0.93
2.68

> <PUBCHEM_SHAPE_SELFOVERLAP>
1126.401

> <PUBCHEM_SHAPE_VOLUME>
289.8

> <PUBCHEM_COORDINATE_TYPE>
2
5
10

$$$$
25010082
  -OEChem-05102415123D

 53 56  0     1  0  0  0  0  0999 V2000
   -3.2814   -2.4424    1.3166 S   0  0  0  0  0  0  0  0  0  0  0  0
   -4.2360   -3.1357    2.1613 O   0  0  0  0  0  0  0  0  0  0  0  0
   -2.5084   -3.1684    0.3284 O   0  0  0  0  0  0  0  0  0  0  0  0
   -0.7059    2.9623    0.0776 N   0  0  1  0  0  0  0  0  0  0  0  0
    2.8643    1.8811    0.2814 N   0  0  0  0  0  0  0  0  0  0  0  0
   -4.0681   -1.0847    0.6068 N   0  0  0  0  0  0  0  0  0  0  0  0
    3.6592   -3.4803   -0.5171 N   0  0  0  0  0  0  0  0  0  0  0  0
    2.4914   -4.0397   -0.1591 N   0  0  0  0  0  0  0  0  0  0  0  0
    1.5952    2.3712    0.7751 C   0  0  2  0  0  0  0  0  0  0  0  0
    0.5804    2.4113   -0.3739 C   0  0  0  0  0  0  0  0  0  0  0  0
    1.7823    3.7573    1.3918 C   0  0  0  0  0  0  0  0  0  0  0  0
    0.4326    4.3515    1.7793 C   0  0  0  0  0  0  0  0  0  0  0  0
   -0.5446    4.3251    0.6030 C   0  0  0  0  0  0  0  0  0  0  0  0
   -1.6807    2.9463   -1.0128 C   0  0  0  0  0  0  0  0  0  0  0  0
   -2.2323    1.5659   -1.2519 C   0  0  0  0  0  0  0  0  0  0  0  0
    3.1325    0.5425    0.0584 C   0  0  0  0  0  0  0  0  0  0  0  0
   -2.8866    0.8880   -0.2234 C   0  0  0  0  0  0  0  0  0  0  0  0
    2.1395   -0.4107    0.3168 C   0  0  0  0  0  0  0  0  0  0  0  0
   -2.0889    0.9651   -2.5025 C   0  0  0  0  0  0  0  0  0  0  0  0
    4.3867    0.1609   -0.4216 C   0  0  0  0  0  0  0  0  0  0  0  0
    2.4319   -1.7647    0.0824 C   0  0  0  0  0  0  0  0  0  0  0  0
   -3.3977   -0.3907   -0.4456 C   0  0  0  0  0  0  0  0  0  0  0  0
    3.6890   -2.1172   -0.3958 C   0  0  0  0  0  0  0  0  0  0  0  0
    4.6929   -1.1829   -0.6599 C   0  0  0  0  0  0  0  0  0  0  0  0
   -2.5999   -0.3136   -2.7248 C   0  0  0  0  0  0  0  0  0  0  0  0
   -3.2543   -0.9915   -1.6963 C   0  0  0  0  0  0  0  0  0  0  0  0
    1.7473   -2.9929    0.2051 C   0  0  0  0  0  0  0  0  0  0  0  0
   -2.1403   -1.6131    2.4004 C   0  0  0  0  0  0  0  0  0  0  0  0
    1.2212    1.7329    1.5865 H   0  0  0  0  0  0  0  0  0  0  0  0
    0.4326    1.4039   -0.7748 H   0  0  0  0  0  0  0  0  0  0  0  0
    0.9849    3.0117   -1.2017 H   0  0  0  0  0  0  0  0  0  0  0  0
    2.4335    3.6999    2.2723 H   0  0  0  0  0  0  0  0  0  0  0  0
    2.2804    4.4268    0.6781 H   0  0  0  0  0  0  0  0  0  0  0  0
    0.5685    5.3829    2.1242 H   0  0  0  0  0  0  0  0  0  0  0  0
    0.0114    3.7862    2.6204 H   0  0  0  0  0  0  0  0  0  0  0  0
   -0.1954    5.0076   -0.1831 H   0  0  0  0  0  0  0  0  0  0  0  0
   -1.5101    4.7045    0.9594 H   0  0  0  0  0  0  0  0  0  0  0  0
   -2.5458    3.5759   -0.7609 H   0  0  0  0  0  0  0  0  0  0  0  0
   -1.2601    3.3756   -1.9320 H   0  0  0  0  0  0  0  0  0  0  0  0
    3.5734    2.5557    0.0154 H   0  0  0  0  0  0  0  0  0  0  0  0
   -3.0040    1.3550    0.7520 H   0  0  0  0  0  0  0  0  0  0  0  0
    1.1542   -0.1713    0.6968 H   0  0  0  0  0  0  0  0  0  0  0  0
   -1.5808    1.4809   -3.3127 H   0  0  0  0  0  0  0  0  0  0  0  0
    5.1503    0.9107   -0.6188 H   0  0  0  0  0  0  0  0  0  0  0  0
    5.6664   -1.4812   -1.0327 H   0  0  0  0  0  0  0  0  0  0  0  0
   -2.4904   -0.7804   -3.6993 H   0  0  0  0  0  0  0  0  0  0  0  0
   -3.6582   -1.9820   -1.8890 H   0  0  0  0  0  0  0  0  0  0  0  0
   -4.5552   -0.4667    1.2698 H   0  0  0  0  0  0  0  0  0  0  0  0
    0.7360   -3.1665    0.5454 H   0  0  0  0  0  0  0  0  0  0  0  0
    4.4018   -4.0887   -0.8383 H   0  0  0  0  0  0  0  0  0  0  0  0
   -2.6990   -0.9643    3.0774 H   0  0  0  0  0  0  0  0  0  0  0  0
   -1.4268   -1.0411    1.8048 H   0  0  0  0  0  0  0  0  0  0  0  0
   -1.6089   -2.3756    2.9746 H   0  0  0  0  0  0  0  0  0  0  0  0
  1  2  2  0  0  0  0
  1  3  2  0  0  0  0
  1  6  1  0  0  0  0
  1 28  1  0  0  0  0
  4 10  1  0  0  0  0
  4 13  1  0  0  0  0
  4 14  1  0  0  0  0
  5  9  1  0  0  0  0
  5 16  1  0  0  0  0
  5 40  1  0  0  0  0
  6 22  1  0  0  0  0
  6 48  1  0  0  0  0
  7  8  1  0  0  0  0
  7 23  1  0  0  0  0
  7 50  1  0  0  0  0
  8 27  2  0  0  0  0
  9 10  1  0  0  0  0
  9 11  1  0  0  0  0
  9 29  1  0  0  0  0
 10 30  1  0  0  0  0
 10 31  1  0  0  0  0
 11 12  1  0  0  0  0
 11 32  1  0  0  0  0
 11 33  1  0  0  0  0
 12 13  1  0  0  0  0
 12 34  1  0  0  0  0
 12 35  1  0  0  0  0
 13 36  1  0  0  0  0
 13 37  1  0  0  0  0
 14 15  1  0  0  0  0
 14 38  1  0  0  0  0
 14 39  1  0  0  0  0
 15 17  2  0  0  0  0
 15 19  1  0  0  0  0
 16 18  2  0  0  0  0
 16 20  1  0  0  0  0
 17 22  1  0  0  0  0
 17 41  1  0  0  0  0
 18 21  1  0  0  0  0
 18 42  1  0  0  0  0
 19 25  2  0  0  0  0
 19 43  1  0  0  0  0
 20 24  2  0  0  0  0
 20 44  1  0  0  0  0
 21 23  2  0  0  0  0
 21 27  1  0  0  0  0
 22 26  2  0  0  0  0
 23 24  1  0  0  0  0
 24 45  1  0  0  0  0
 25 26  1  0  0  0  0
 25 46  1  0  0  0  0
 26 47  1  0  0  0  0
 27 49  1  0  0  0  0
 28 51  1  0  0  0  0
 28 52  1  0  0  0  0
 28 53  1  0  0  0  0
M  END
> <PUBCHEM_COMPOUND_CID>
25010082

> <PUBCHEM_CONFORMER_RMSD>
1.2

> <PUBCHEM_CONFORMER_DIVERSEORDER>
1
23
82
167
67
71
41
6
143
86
129
83
44
107
37
156
62
109
132
7
136
26
90
135
80
100
68
159
58
30
152
144
141
12
126
56
157
110
164
165
127
125
166
153
50
94
122
172
169
115
32
69
52
84
47
93
64
123
102
170
63
95
162
2
43
5
97
118
121
160
70
163
106
18
14
28
99
89
120
103
16
119
72
81
49
8
73
108
140
124
105
88
31
112
19
146
35
155
91
101
116
149
171
54
104
60
4
133
65
142
131
79
25
33
29
34
39
74
148
168
9
57
61
3
161
40
158
87
130
75
48
78
96
145
134
85
98
36
113
55
59
20
66
42
150
138
17
114
117
22
147
154
111
139
46
38
137
10
45
11
128
27
151
51
24
21
77
13
53
92
15
76

> <PUBCHEM_MMFF94_PARTIAL_CHARGES>
36
1 1.33
10 0.27
13 0.27
14 0.41
15 -0.14
16 0.1
17 -0.15
18 -0.15
19 -0.15
2 -0.65
20 -0.15
22 0.2
23 -0.15
24 -0.15
25 -0.15
26 -0.15
27 0.14
28 0.11
3 -0.65
4 -0.81
40 0.4
41 0.15
42 0.15
43 0.15
44 0.15
45 0.15
46 0.15
47 0.15
48 0.42
49 0.15
5 -0.87
50 0.27
6 -0.76
7 0.3
8 -0.71
9 0.37

> <PUBCHEM_EFFECTIVE_ROTOR_COUNT>
7.2

> <PUBCHEM_PHARMACOPHORE_FEATURES>
12
1 2 acceptor
1 3 acceptor
1 4 cation
1 5 cation
1 5 donor
1 6 donor
1 7 donor
1 8 acceptor
5 7 8 21 23 27 rings
6 15 17 19 22 25 26 rings
6 16 18 20 21 23 24 rings
6 4 9 10 11 12 13 rings

> <PUBCHEM_HEAVY_ATOM_COUNT>
28

> <PUBCHEM_ATOM_DEF_STEREO_COUNT>
1

> <PUBCHEM_ATOM_UDEF_STEREO_COUNT>
0

> <PUBCHEM_BOND_DEF_STEREO_COUNT>
0

> <PUBCHEM_BOND_UDEF_STEREO_COUNT>
0

> <PUBCHEM_ISOTOPIC_ATOM_COUNT>
0

> <PUBCHEM_COMPONENT_COUNT>
1

> <PUBCHEM_CACTVS_TAUTO_COUNT>
2

> <PUBCHEM_CONFORMER_ID>
017D9FA200000001

> <PUBCHEM_MMFF94_ENERGY>
69.0794

> <PUBCHEM_FEATURE_SELFOVERLAP>
61.005

> <PUBCHEM_SHAPE_FINGERPRINT>
10064457 181 17044301329058061953
114674 6 18124854992500460188
11513181 2 16615636938482046790
12100795 323 17255961698017668112
12128747 34 18337675313007777041
12156800 1 16463685058535270257
12553582 1 18271229530979307532
12788726 201 17981034220005675025
13122387 1 18338784650613306838
13402501 40 18115870870041658155
1361 2 17835498794257973095
14026016 164 16534535247004317050
14279260 333 17689155609209762982
14363568 33 18194977463421851608
14659021 117 17905596715014425330
15274700 242 17036138000878026370
15403338 16 17771082754677720491
15420108 30 15956682105253459305
17859628 97 16970549911418864472
19315092 285 15909053142142346933
19734167 9 16544384203739887657
1979834 28 17396998215530314715
19930381 70 18195797682043163799
20501277 246 17317639756509430555
20764821 26 18049993691288121110
20775530 9 18261680379887393363
21133410 38 17120307243734925867
21315759 227 18260259738039669150
3737641 26 18341624710917925244
44426695 316 14880095290215044994
445580 102 18409169909156651038
463206 1 18413100667383455774
50677037 204 16456267645642166394
5309563 4 18339927120583111455
6287921 2 17760939836709357155
66674814 147 16178431549875879503
86090 222 17971474254524213795

> <PUBCHEM_SHAPE_MULTIPOLES>
543.43
8.28
6.32
2.05
2.6
2.79
-0.21
-7.53
-0.83
1.34
3.11
-2.77
-0.17
2.96

> <PUBCHEM_SHAPE_SELFOVERLAP>
1156.03

> <PUBCHEM_SHAPE_VOLUME>
304.8

> <PUBCHEM_COORDINATE_TYPE>
2
5
10

$$$$
25010253
  -OEChem-05102415123D

 53 56  0     1  0  0  0  0  0999 V2000
   -0.6721   -3.7510    0.8196 O   0  0  0  0  0  0  0  0  0  0  0  0
    2.1033   -3.9216    0.6860 O   0  0  0  0  0  0  0  0  0  0  0  0
   -2.8786    1.4255   -0.0003 N   0  0  2  0  0  0  0  0  0  0  0  0
    0.4277    3.0279    0.7001 N   0  0  0  0  0  0  0  0  0  0  0  0
    4.7748   -0.0179   -0.6567 N   0  0  0  0  0  0  0  0  0  0  0  0
    4.3160   -0.8267   -1.6263 N   0  0  0  0  0  0  0  0  0  0  0  0
   -0.8424    2.8375    0.0309 C   0  0  2  0  0  0  0  0  0  0  0  0
   -1.6998    4.0936    0.1897 C   0  0  0  0  0  0  0  0  0  0  0  0
   -1.5557    1.6104    0.6141 C   0  0  0  0  0  0  0  0  0  0  0  0
   -3.0963    3.8602   -0.3761 C   0  0  0  0  0  0  0  0  0  0  0  0
   -3.7326    2.6016    0.2149 C   0  0  0  0  0  0  0  0  0  0  0  0
   -3.5235    0.2220    0.5246 C   0  0  0  0  0  0  0  0  0  0  0  0
   -2.9481   -1.0314   -0.0792 C   0  0  0  0  0  0  0  0  0  0  0  0
    1.5635    2.2941    0.4081 C   0  0  0  0  0  0  0  0  0  0  0  0
    1.5088    1.3071   -0.5842 C   0  0  0  0  0  0  0  0  0  0  0  0
    2.7467    2.5481    1.1041 C   0  0  0  0  0  0  0  0  0  0  0  0
   -2.0653   -1.8198    0.6589 C   0  0  0  0  0  0  0  0  0  0  0  0
   -3.2981   -1.4043   -1.3769 C   0  0  0  0  0  0  0  0  0  0  0  0
    2.6737    0.5742   -0.8664 C   0  0  0  0  0  0  0  0  0  0  0  0
    3.8387    0.8474   -0.1581 C   0  0  0  0  0  0  0  0  0  0  0  0
    3.9145    1.8269    0.8346 C   0  0  0  0  0  0  0  0  0  0  0  0
   -1.5328   -2.9812    0.0994 C   0  0  0  0  0  0  0  0  0  0  0  0
   -2.7654   -2.5656   -1.9366 C   0  0  0  0  0  0  0  0  0  0  0  0
   -1.8828   -3.3540   -1.1983 C   0  0  0  0  0  0  0  0  0  0  0  0
    3.0375   -0.4637   -1.7509 C   0  0  0  0  0  0  0  0  0  0  0  0
    0.1456   -3.0854    1.7810 C   0  0  0  0  0  0  0  0  0  0  0  0
    1.4429   -3.8538    1.9439 C   0  0  0  0  0  0  0  0  0  0  0  0
   -0.6971    2.7110   -1.0501 H   0  0  0  0  0  0  0  0  0  0  0  0
   -1.7810    4.3663    1.2503 H   0  0  0  0  0  0  0  0  0  0  0  0
   -1.2281    4.9449   -0.3158 H   0  0  0  0  0  0  0  0  0  0  0  0
   -0.9387    0.7227    0.4516 H   0  0  0  0  0  0  0  0  0  0  0  0
   -1.6505    1.7218    1.7041 H   0  0  0  0  0  0  0  0  0  0  0  0
   -3.0379    3.7654   -1.4678 H   0  0  0  0  0  0  0  0  0  0  0  0
   -3.7300    4.7290   -0.1648 H   0  0  0  0  0  0  0  0  0  0  0  0
   -4.7028    2.4536   -0.2749 H   0  0  0  0  0  0  0  0  0  0  0  0
   -3.9264    2.7526    1.2851 H   0  0  0  0  0  0  0  0  0  0  0  0
   -4.5942    0.2234    0.2753 H   0  0  0  0  0  0  0  0  0  0  0  0
   -3.4860    0.1859    1.6220 H   0  0  0  0  0  0  0  0  0  0  0  0
    0.4735    3.6809    1.4748 H   0  0  0  0  0  0  0  0  0  0  0  0
    0.6212    1.0751   -1.1591 H   0  0  0  0  0  0  0  0  0  0  0  0
    2.7771    3.3178    1.8727 H   0  0  0  0  0  0  0  0  0  0  0  0
   -1.8315   -1.5202    1.6767 H   0  0  0  0  0  0  0  0  0  0  0  0
   -3.9846   -0.7982   -1.9623 H   0  0  0  0  0  0  0  0  0  0  0  0
    4.8345    2.0226    1.3740 H   0  0  0  0  0  0  0  0  0  0  0  0
   -3.0377   -2.8559   -2.9470 H   0  0  0  0  0  0  0  0  0  0  0  0
   -1.4707   -4.2575   -1.6395 H   0  0  0  0  0  0  0  0  0  0  0  0
    2.4217   -0.9706   -2.4805 H   0  0  0  0  0  0  0  0  0  0  0  0
    5.7442   -0.1072   -0.3788 H   0  0  0  0  0  0  0  0  0  0  0  0
   -0.3826   -3.0363    2.7393 H   0  0  0  0  0  0  0  0  0  0  0  0
    0.4035   -2.0731    1.4427 H   0  0  0  0  0  0  0  0  0  0  0  0
    2.1004   -3.3613    2.6663 H   0  0  0  0  0  0  0  0  0  0  0  0
    1.2436   -4.8791    2.2710 H   0  0  0  0  0  0  0  0  0  0  0  0
    2.9285   -4.4171    0.8238 H   0  0  0  0  0  0  0  0  0  0  0  0
  1 22  1  0  0  0  0
  1 26  1  0  0  0  0
  2 27  1  0  0  0  0
  2 53  1  0  0  0  0
  3  9  1  0  0  0  0
  3 11  1  0  0  0  0
  3 12  1  0  0  0  0
  4  7  1  0  0  0  0
  4 14  1  0  0  0  0
  4 39  1  0  0  0  0
  5  6  1  0  0  0  0
  5 20  1  0  0  0  0
  5 48  1  0  0  0  0
  6 25  2  0  0  0  0
  7  8  1  0  0  0  0
  7  9  1  0  0  0  0
  7 28  1  0  0  0  0
  8 10  1  0  0  0  0
  8 29  1  0  0  0  0
  8 30  1  0  0  0  0
  9 31  1  0  0  0  0
  9 32  1  0  0  0  0
 10 11  1  0  0  0  0
 10 33  1  0  0  0  0
 10 34  1  0  0  0  0
 11 35  1  0  0  0  0
 11 36  1  0  0  0  0
 12 13  1  0  0  0  0
 12 37  1  0  0  0  0
 12 38  1  0  0  0  0
 13 17  2  0  0  0  0
 13 18  1  0  0  0  0
 14 15  2  0  0  0  0
 14 16  1  0  0  0  0
 15 19  1  0  0  0  0
 15 40  1  0  0  0  0
 16 21  2  0  0  0  0
 16 41  1  0  0  0  0
 17 22  1  0  0  0  0
 17 42  1  0  0  0  0
 18 23  2  0  0  0  0
 18 43  1  0  0  0  0
 19 20  2  0  0  0  0
 19 25  1  0  0  0  0
 20 21  1  0  0  0  0
 21 44  1  0  0  0  0
 22 24  2  0  0  0  0
 23 24  1  0  0  0  0
 23 45  1  0  0  0  0
 24 46  1  0  0  0  0
 25 47  1  0  0  0  0
 26 27  1  0  0  0  0
 26 49  1  0  0  0  0
 26 50  1  0  0  0  0
 27 51  1  0  0  0  0
 27 52  1  0  0  0  0
M  END
> <PUBCHEM_COMPOUND_CID>
25010253

> <PUBCHEM_CONFORMER_RMSD>
1.2

> <PUBCHEM_CONFORMER_DIVERSEORDER>
1
26
90
65
43
51
89
47
53
54
67
6
24
31
71
16
74
109
46
105
52
45
38
79
106
19
37
28
29
99
108
61
66
34
112
11
104
42
91
55
3
77
57
27
18
98
81
50
32
41
84
48
76
40
86
95
33
49
15
103
72
30
14
20
60
110
44
25
39
100
83
70
58
2
13
111
114
88
96
78
9
101
21
23
85
63
82
73
4
62
113
7
75
56
59
92
22
87
64
5
69
36
94
93
12
97
8
102
115
80
35
10
68
17
107

> <PUBCHEM_MMFF94_PARTIAL_CHARGES>
35
1 -0.36
11 0.27
12 0.41
13 -0.14
14 0.1
15 -0.15
16 -0.15
17 -0.15
18 -0.15
2 -0.68
20 -0.15
21 -0.15
22 0.08
23 -0.15
24 -0.15
25 0.14
26 0.28
27 0.28
3 -0.81
39 0.4
4 -0.87
40 0.15
41 0.15
42 0.15
43 0.15
44 0.15
45 0.15
46 0.15
47 0.15
48 0.27
5 0.3
53 0.4
6 -0.71
7 0.37
9 0.27

> <PUBCHEM_EFFECTIVE_ROTOR_COUNT>
8.2

> <PUBCHEM_PHARMACOPHORE_FEATURES>
12
1 1 acceptor
1 2 acceptor
1 2 donor
1 3 cation
1 4 cation
1 4 donor
1 5 donor
1 6 acceptor
5 5 6 19 20 25 rings
6 13 17 18 22 23 24 rings
6 14 15 16 19 20 21 rings
6 3 7 8 9 10 11 rings

> <PUBCHEM_HEAVY_ATOM_COUNT>
27

> <PUBCHEM_ATOM_DEF_STEREO_COUNT>
1

> <PUBCHEM_ATOM_UDEF_STEREO_COUNT>
0

> <PUBCHEM_BOND_DEF_STEREO_COUNT>
0

> <PUBCHEM_BOND_UDEF_STEREO_COUNT>
0

> <PUBCHEM_ISOTOPIC_ATOM_COUNT>
0

> <PUBCHEM_COMPONENT_COUNT>
1

> <PUBCHEM_CACTVS_TAUTO_COUNT>
2

> <PUBCHEM_CONFORMER_ID>
017DA04D00000001

> <PUBCHEM_MMFF94_ENERGY>
71.0211

> <PUBCHEM_FEATURE_SELFOVERLAP>
60.992

> <PUBCHEM_SHAPE_FINGERPRINT>
10006869 2 18339081476720920563
1100329 8 17904763271862157026
11828532 37 16238410999893105162
12156800 1 16554194789886105261
12202916 173 17621289752484841202
12553582 1 17834406987416228237
12788726 201 18337388356887704336
13122387 1 17763191236885231998
140371 6 17690276440748597897
14114206 34 18263083373772144140
14117953 113 16174250545083497998
14251757 5 18194991662668362764
14659021 117 18267577082459382304
14725015 67 18267577103575691770
15297060 5 17194032302911375706
15322534 239 18263657190563334806
19930381 70 17261309722707844975
20600515 1 17609758048646748748
20764821 26 18047482393697913074
22113638 7 17545586864841103019
3298306 158 18121503449431581589
338550 245 18117282445935924642
474144 1 17467365417514083750
5309563 4 16826439718458272683
57091435 65 18119251662122769603
57527585 103 17683813485282580523
6287921 2 15748946227460875938
9709674 26 18199188558443949740

> <PUBCHEM_SHAPE_MULTIPOLES>
523.98
7.73
6.65
1.58
5.62
0.63
0.18
-0.75
2.35
-3.78
-2.18
0.41
1.68
-0.29

> <PUBCHEM_SHAPE_SELFOVERLAP>
1126.314

> <PUBCHEM_SHAPE_VOLUME>
289.8

> <PUBCHEM_COORDINATE_TYPE>
2
5
10

$$$$
44594508
  -OEChem-05102415123D

 53 56  0     1  0  0  0  0  0999 V2000
    2.2479   -3.0124    0.7093 S   0  0  0  0  0  0  0  0  0  0  0  0
    3.2444   -3.7100    1.5005 O   0  0  0  0  0  0  0  0  0  0  0  0
    2.3703   -2.9411   -0.7332 O   0  0  0  0  0  0  0  0  0  0  0  0
   -3.3155    0.3543   -0.0117 N   0  0  2  0  0  0  0  0  0  0  0  0
   -0.8639    3.1093    0.6128 N   0  0  0  0  0  0  0  0  0  0  0  0
    0.6899   -3.5862    1.1674 N   0  0  0  0  0  0  0  0  0  0  0  0
    4.3403    1.8334   -0.5286 N   0  0  0  0  0  0  0  0  0  0  0  0
    4.2424    0.8620   -1.4516 N   0  0  0  0  0  0  0  0  0  0  0  0
   -1.9525    2.4234   -0.0520 C   0  0  1  0  0  0  0  0  0  0  0  0
   -2.1744    1.0518    0.5991 C   0  0  0  0  0  0  0  0  0  0  0  0
   -3.2198    3.2756    0.0253 C   0  0  0  0  0  0  0  0  0  0  0  0
   -4.4125    2.5083   -0.5345 C   0  0  0  0  0  0  0  0  0  0  0  0
   -4.5515    1.1366    0.1268 C   0  0  0  0  0  0  0  0  0  0  0  0
   -3.4810   -0.9730    0.5803 C   0  0  0  0  0  0  0  0  0  0  0  0
   -2.4635   -1.9514    0.0566 C   0  0  0  0  0  0  0  0  0  0  0  0
    0.4710    2.8377    0.3729 C   0  0  0  0  0  0  0  0  0  0  0  0
   -1.3716   -2.3123    0.8460 C   0  0  0  0  0  0  0  0  0  0  0  0
    0.8153    1.8504   -0.5590 C   0  0  0  0  0  0  0  0  0  0  0  0
   -2.6124   -2.4960   -1.2190 C   0  0  0  0  0  0  0  0  0  0  0  0
    1.4551    3.5497    1.0611 C   0  0  0  0  0  0  0  0  0  0  0  0
    2.1764    1.5896   -0.7885 C   0  0  0  0  0  0  0  0  0  0  0  0
   -0.4286   -3.2180    0.3602 C   0  0  0  0  0  0  0  0  0  0  0  0
    3.1360    2.3134   -0.0894 C   0  0  0  0  0  0  0  0  0  0  0  0
    2.8143    3.3016    0.8435 C   0  0  0  0  0  0  0  0  0  0  0  0
   -1.6692   -3.4015   -1.7050 C   0  0  0  0  0  0  0  0  0  0  0  0
   -0.5774   -3.7627   -0.9154 C   0  0  0  0  0  0  0  0  0  0  0  0
    2.9246    0.7163   -1.6070 C   0  0  0  0  0  0  0  0  0  0  0  0
    2.1658   -1.3487    1.3333 C   0  0  0  0  0  0  0  0  0  0  0  0
   -1.7399    2.3030   -1.1226 H   0  0  0  0  0  0  0  0  0  0  0  0
   -2.3347    1.1777    1.6798 H   0  0  0  0  0  0  0  0  0  0  0  0
   -1.2670    0.4513    0.4941 H   0  0  0  0  0  0  0  0  0  0  0  0
   -3.4267    3.5545    1.0670 H   0  0  0  0  0  0  0  0  0  0  0  0
   -3.0845    4.2132   -0.5273 H   0  0  0  0  0  0  0  0  0  0  0  0
   -4.2919    2.3840   -1.6182 H   0  0  0  0  0  0  0  0  0  0  0  0
   -5.3297    3.0879   -0.3801 H   0  0  0  0  0  0  0  0  0  0  0  0
   -4.8179    1.2612    1.1847 H   0  0  0  0  0  0  0  0  0  0  0  0
   -5.3826    0.6115   -0.3595 H   0  0  0  0  0  0  0  0  0  0  0  0
   -3.4624   -0.9343    1.6781 H   0  0  0  0  0  0  0  0  0  0  0  0
   -4.4679   -1.3845    0.3251 H   0  0  0  0  0  0  0  0  0  0  0  0
   -1.0864    3.7732    1.3466 H   0  0  0  0  0  0  0  0  0  0  0  0
   -1.2526   -1.8876    1.8402 H   0  0  0  0  0  0  0  0  0  0  0  0
    0.0942    1.2741   -1.1250 H   0  0  0  0  0  0  0  0  0  0  0  0
   -3.4588   -2.2229   -1.8436 H   0  0  0  0  0  0  0  0  0  0  0  0
    1.1755    4.3147    1.7828 H   0  0  0  0  0  0  0  0  0  0  0  0
    3.5801    3.8535    1.3771 H   0  0  0  0  0  0  0  0  0  0  0  0
   -1.7864   -3.8275   -2.6972 H   0  0  0  0  0  0  0  0  0  0  0  0
    0.1420   -4.4790   -1.3036 H   0  0  0  0  0  0  0  0  0  0  0  0
    0.4984   -3.5684    2.1781 H   0  0  0  0  0  0  0  0  0  0  0  0
    2.5620   -0.0211   -2.3091 H   0  0  0  0  0  0  0  0  0  0  0  0
    5.2652    2.1256   -0.2388 H   0  0  0  0  0  0  0  0  0  0  0  0
    1.9778   -1.3831    2.4082 H   0  0  0  0  0  0  0  0  0  0  0  0
    1.3702   -0.8127    0.8169 H   0  0  0  0  0  0  0  0  0  0  0  0
    3.1292   -0.8710    1.1452 H   0  0  0  0  0  0  0  0  0  0  0  0
  1  2  2  0  0  0  0
  1  3  2  0  0  0  0
  1  6  1  0  0  0  0
  1 28  1  0  0  0  0
  4 10  1  0  0  0  0
  4 13  1  0  0  0  0
  4 14  1  0  0  0  0
  5  9  1  0  0  0  0
  5 16  1  0  0  0  0
  5 40  1  0  0  0  0
  6 22  1  0  0  0  0
  6 48  1  0  0  0  0
  7  8  1  0  0  0  0
  7 23  1  0  0  0  0
  7 50  1  0  0  0  0
  8 27  2  0  0  0  0
  9 10  1  0  0  0  0
  9 11  1  0  0  0  0
  9 29  1  0  0  0  0
 10 30  1  0  0  0  0
 10 31  1  0  0  0  0
 11 12  1  0  0  0  0
 11 32  1  0  0  0  0
 11 33  1  0  0  0  0
 12 13  1  0  0  0  0
 12 34  1  0  0  0  0
 12 35  1  0  0  0  0
 13 36  1  0  0  0  0
 13 37  1  0  0  0  0
 14 15  1  0  0  0  0
 14 38  1  0  0  0  0
 14 39  1  0  0  0  0
 15 17  2  0  0  0  0
 15 19  1  0  0  0  0
 16 18  2  0  0  0  0
 16 20  1  0  0  0  0
 17 22  1  0  0  0  0
 17 41  1  0  0  0  0
 18 21  1  0  0  0  0
 18 42  1  0  0  0  0
 19 25  2  0  0  0  0
 19 43  1  0  0  0  0
 20 24  2  0  0  0  0
 20 44  1  0  0  0  0
 21 23  2  0  0  0  0
 21 27  1  0  0  0  0
 22 26  2  0  0  0  0
 23 24  1  0  0  0  0
 24 45  1  0  0  0  0
 25 26  1  0  0  0  0
 25 46  1  0  0  0  0
 26 47  1  0  0  0  0
 27 49  1  0  0  0  0
 28 51  1  0  0  0  0
 28 52  1  0  0  0  0
 28 53  1  0  0  0  0
M  END
> <PUBCHEM_COMPOUND_CID>
44594508

> <PUBCHEM_CONFORMER_RMSD>
1.2

> <PUBCHEM_CONFORMER_DIVERSEORDER>
1
77
113
143
124
97
126
131
104
66
102
63
160
9
164
169
155
3
139
54
70
156
137
150
148
146
108
16
17
26
46
120
69
40
64
138
65
71
96
55
151
161
122
142
127
110
5
98
52
87
149
162
172
89
37
105
80
59
53
85
171
50
2
134
174
163
34
100
41
95
57
114
72
140
28
135
144
48
99
147
32
31
157
141
118
129
4
153
29
90
94
170
73
18
119
115
56
132
61
84
75
21
39
76
166
6
109
106
117
130
86
19
51
12
145
88
11
133
168
42
44
60
25
101
167
78
68
175
38
152
8
158
136
92
154
45
33
23
43
20
107
112
67
14
49
81
62
111
24
74
159
13
7
30
82
123
93
47
125
22
128
10
27
83
103
116
176
58
91
35
36
165
79
121
15
173

> <PUBCHEM_MMFF94_PARTIAL_CHARGES>
36
1 1.33
10 0.27
13 0.27
14 0.41
15 -0.14
16 0.1
17 -0.15
18 -0.15
19 -0.15
2 -0.65
20 -0.15
22 0.2
23 -0.15
24 -0.15
25 -0.15
26 -0.15
27 0.14
28 0.11
3 -0.65
4 -0.81
40 0.4
41 0.15
42 0.15
43 0.15
44 0.15
45 0.15
46 0.15
47 0.15
48 0.42
49 0.15
5 -0.87
50 0.27
6 -0.76
7 0.3
8 -0.71
9 0.37

> <PUBCHEM_EFFECTIVE_ROTOR_COUNT>
7.2

> <PUBCHEM_PHARMACOPHORE_FEATURES>
12
1 2 acceptor
1 3 acceptor
1 4 cation
1 5 cation
1 5 donor
1 6 donor
1 7 donor
1 8 acceptor
5 7 8 21 23 27 rings
6 15 17 19 22 25 26 rings
6 16 18 20 21 23 24 rings
6 4 9 10 11 12 13 rings

> <PUBCHEM_HEAVY_ATOM_COUNT>
28

> <PUBCHEM_ATOM_DEF_STEREO_COUNT>
1

> <PUBCHEM_ATOM_UDEF_STEREO_COUNT>
0

> <PUBCHEM_BOND_DEF_STEREO_COUNT>
0

> <PUBCHEM_BOND_UDEF_STEREO_COUNT>
0

> <PUBCHEM_ISOTOPIC_ATOM_COUNT>
0

> <PUBCHEM_COMPONENT_COUNT>
1

> <PUBCHEM_CACTVS_TAUTO_COUNT>
2

> <PUBCHEM_CONFORMER_ID>
02A8754C00000001

> <PUBCHEM_MMFF94_ENERGY>
68.5767

> <PUBCHEM_FEATURE_SELFOVERLAP>
61.005

> <PUBCHEM_SHAPE_FINGERPRINT>
1100329 8 18192712245824566939
11513181 2 18129376008215286190
12038231 1 17907018730744878617
12553582 1 16968591166013803165
12788726 201 17977380865147553448
13122387 1 18194125118281933878
13642711 20 17115190099170050959
140371 6 17546729253507456569
14117953 113 17255960070172276644
14251757 5 17831322840305090244
14659021 117 17836076050441339352
14725015 67 17835515295015707426
15961568 22 17474383574279868359
17627616 140 18335422353020145914
19611394 137 18045520620774341403
21796203 349 17545640792872322824
22113638 7 18050836737275456791
3027735 51 18194675089371778803
3298306 158 18409452483787199717
338550 245 18333734602739769780
463206 1 18410577245427482304
474144 1 17899148117761234382
5265222 85 18045242654448301204
57091435 65 18408046195108496370
6287921 2 16685420136445065674
6433294 58 18410576145715654080
9709674 26 17910397525835671381

> <PUBCHEM_SHAPE_MULTIPOLES>
543.43
7.54
7.01
1.36
1.82
2.87
0.21
-3.97
1.49
-1.31
-1.26
0.61
0.93
-0.8

> <PUBCHEM_SHAPE_SELFOVERLAP>
1156.476

> <PUBCHEM_SHAPE_VOLUME>
304.9

> <PUBCHEM_COORDINATE_TYPE>
2
5
10

$$$$
25010254
  -OEChem-05102415123D

 50 53  0     1  0  0  0  0  0999 V2000
    6.3178   -0.0154    0.2844 O   0  0  0  0  0  0  0  0  0  0  0  0
    8.4722    1.7548    0.5507 O   0  0  0  0  0  0  0  0  0  0  0  0
    0.6529   -0.2021   -0.1148 N   0  0  1  0  0  0  0  0  0  0  0  0
   -2.4225    1.5586   -0.3447 N   0  0  0  0  0  0  0  0  0  0  0  0
   -7.4777   -0.3886    0.4927 N   0  0  0  0  0  0  0  0  0  0  0  0
   -7.3940   -1.6791    0.1289 N   0  0  0  0  0  0  0  0  0  0  0  0
   -1.3759    0.7020   -0.8499 C   0  0  1  0  0  0  0  0  0  0  0  0
   -0.2176    1.5172   -1.4292 C   0  0  0  0  0  0  0  0  0  0  0  0
   -0.7554   -0.1215    0.2762 C   0  0  0  0  0  0  0  0  0  0  0  0
    0.9905    1.1427   -0.5806 C   0  0  0  0  0  0  0  0  0  0  0  0
    1.5084   -0.6422    0.9773 C   0  0  0  0  0  0  0  0  0  0  0  0
    2.8411   -1.1371    0.4815 C   0  0  0  0  0  0  0  0  0  0  0  0
   -3.7209    1.1325   -0.1111 C   0  0  0  0  0  0  0  0  0  0  0  0
   -4.0652   -0.1999   -0.3715 C   0  0  0  0  0  0  0  0  0  0  0  0
    3.9758   -0.3367    0.6139 C   0  0  0  0  0  0  0  0  0  0  0  0
   -4.6652    2.0353    0.3810 C   0  0  0  0  0  0  0  0  0  0  0  0
    2.9409   -2.3962   -0.1102 C   0  0  0  0  0  0  0  0  0  0  0  0
   -5.3859   -0.6117   -0.1266 C   0  0  0  0  0  0  0  0  0  0  0  0
   -6.3064    0.3079    0.3634 C   0  0  0  0  0  0  0  0  0  0  0  0
   -5.9838    1.6404    0.6297 C   0  0  0  0  0  0  0  0  0  0  0  0
    5.2104   -0.7957    0.1547 C   0  0  0  0  0  0  0  0  0  0  0  0
    4.1755   -2.8553   -0.5695 C   0  0  0  0  0  0  0  0  0  0  0  0
    5.3102   -2.0549   -0.4370 C   0  0  0  0  0  0  0  0  0  0  0  0
   -6.1201   -1.8111   -0.2473 C   0  0  0  0  0  0  0  0  0  0  0  0
    6.1234    1.3979    0.2558 C   0  0  0  0  0  0  0  0  0  0  0  0
    7.3716    2.0579   -0.2979 C   0  0  0  0  0  0  0  0  0  0  0  0
   -1.7359    0.0613   -1.6647 H   0  0  0  0  0  0  0  0  0  0  0  0
   -0.0447    1.2154   -2.4702 H   0  0  0  0  0  0  0  0  0  0  0  0
   -0.3888    2.5989   -1.4261 H   0  0  0  0  0  0  0  0  0  0  0  0
   -1.2053   -1.1172    0.3454 H   0  0  0  0  0  0  0  0  0  0  0  0
   -0.8735    0.3767    1.2483 H   0  0  0  0  0  0  0  0  0  0  0  0
    1.9100    1.1653   -1.1739 H   0  0  0  0  0  0  0  0  0  0  0  0
    1.0906    1.8524    0.2508 H   0  0  0  0  0  0  0  0  0  0  0  0
    1.0356   -1.4837    1.5036 H   0  0  0  0  0  0  0  0  0  0  0  0
    1.6362    0.1361    1.7419 H   0  0  0  0  0  0  0  0  0  0  0  0
   -2.1815    2.5019   -0.0598 H   0  0  0  0  0  0  0  0  0  0  0  0
   -3.3673   -0.9368   -0.7494 H   0  0  0  0  0  0  0  0  0  0  0  0
    3.8734    0.6285    1.1022 H   0  0  0  0  0  0  0  0  0  0  0  0
   -4.3858    3.0681    0.5797 H   0  0  0  0  0  0  0  0  0  0  0  0
    2.0642   -3.0292   -0.2192 H   0  0  0  0  0  0  0  0  0  0  0  0
   -6.7187    2.3400    1.0119 H   0  0  0  0  0  0  0  0  0  0  0  0
    4.2532   -3.8357   -1.0302 H   0  0  0  0  0  0  0  0  0  0  0  0
    6.2691   -2.4176   -0.7966 H   0  0  0  0  0  0  0  0  0  0  0  0
   -5.7776   -2.7758   -0.5943 H   0  0  0  0  0  0  0  0  0  0  0  0
   -8.3697   -0.0422    0.8233 H   0  0  0  0  0  0  0  0  0  0  0  0
    5.9437    1.7421    1.2807 H   0  0  0  0  0  0  0  0  0  0  0  0
    5.2833    1.6827   -0.3897 H   0  0  0  0  0  0  0  0  0  0  0  0
    7.6023    1.6726   -1.2961 H   0  0  0  0  0  0  0  0  0  0  0  0
    7.2497    3.1441   -0.3433 H   0  0  0  0  0  0  0  0  0  0  0  0
    9.2538    2.1902    0.1699 H   0  0  0  0  0  0  0  0  0  0  0  0
  1 21  1  0  0  0  0
  1 25  1  0  0  0  0
  2 26  1  0  0  0  0
  2 50  1  0  0  0  0
  3  9  1  0  0  0  0
  3 10  1  0  0  0  0
  3 11  1  0  0  0  0
  4  7  1  0  0  0  0
  4 13  1  0  0  0  0
  4 36  1  0  0  0  0
  5  6  1  0  0  0  0
  5 19  1  0  0  0  0
  5 45  1  0  0  0  0
  6 24  2  0  0  0  0
  7  8  1  0  0  0  0
  7  9  1  0  0  0  0
  7 27  1  0  0  0  0
  8 10  1  0  0  0  0
  8 28  1  0  0  0  0
  8 29  1  0  0  0  0
  9 30  1  0  0  0  0
  9 31  1  0  0  0  0
 10 32  1  0  0  0  0
 10 33  1  0  0  0  0
 11 12  1  0  0  0  0
 11 34  1  0  0  0  0
 11 35  1  0  0  0  0
 12 15  2  0  0  0  0
 12 17  1  0  0  0  0
 13 14  2  0  0  0  0
 13 16  1  0  0  0  0
 14 18  1  0  0  0  0
 14 37  1  0  0  0  0
 15 21  1  0  0  0  0
 15 38  1  0  0  0  0
 16 20  2  0  0  0  0
 16 39  1  0  0  0  0
 17 22  2  0  0  0  0
 17 40  1  0  0  0  0
 18 19  2  0  0  0  0
 18 24  1  0  0  0  0
 19 20  1  0  0  0  0
 20 41  1  0  0  0  0
 21 23  2  0  0  0  0
 22 23  1  0  0  0  0
 22 42  1  0  0  0  0
 23 43  1  0  0  0  0
 24 44  1  0  0  0  0
 25 26  1  0  0  0  0
 25 46  1  0  0  0  0
 25 47  1  0  0  0  0
 26 48  1  0  0  0  0
 26 49  1  0  0  0  0
M  END
> <PUBCHEM_COMPOUND_CID>
25010254

> <PUBCHEM_CONFORMER_RMSD>
1

> <PUBCHEM_CONFORMER_DIVERSEORDER>
1
147
113
168
63
3
78
14
18
171
192
45
8
191
136
162
161
166
80
137
73
46
134
101
177
6
125
158
144
22
174
84
108
131
119
99
74
68
34
130
138
39
33
13
197
159
69
40
175
187
143
123
55
128
193
36
47
102
42
145
118
82
27
184
111
50
81
16
169
150
51
25
160
194
198
98
61
41
178
79
87
93
24
126
167
53
92
140
173
5
157
28
72
142
127
135
7
62
66
164
139
83
23
124
109
67
146
165
10
122
186
60
189
133
176
90
188
48
104
151
65
54
155
114
181
97
30
77
94
38
149
26
76
4
110
58
121
70
180
44
31
107
100
89
15
182
153
57
106
49
29
116
196
12
88
195
35
32
91
85
117
152
86
64
75
154
129
183
148
43
115
185
96
52
170
20
9
21
179
141
17
132
37
105
163
120
190
112
156
59
56
172
71
11
103
2
95
19

> <PUBCHEM_MMFF94_PARTIAL_CHARGES>
35
1 -0.36
10 0.27
11 0.41
12 -0.14
13 0.1
14 -0.15
15 -0.15
16 -0.15
17 -0.15
19 -0.15
2 -0.68
20 -0.15
21 0.08
22 -0.15
23 -0.15
24 0.14
25 0.28
26 0.28
3 -0.81
36 0.4
37 0.15
38 0.15
39 0.15
4 -0.87
40 0.15
41 0.15
42 0.15
43 0.15
44 0.15
45 0.27
5 0.3
50 0.4
6 -0.71
7 0.37
9 0.27

> <PUBCHEM_EFFECTIVE_ROTOR_COUNT>
8

> <PUBCHEM_PHARMACOPHORE_FEATURES>
12
1 1 acceptor
1 2 acceptor
1 2 donor
1 3 cation
1 4 cation
1 4 donor
1 5 donor
1 6 acceptor
5 3 7 8 9 10 rings
5 5 6 18 19 24 rings
6 12 15 17 21 22 23 rings
6 13 14 16 18 19 20 rings

> <PUBCHEM_HEAVY_ATOM_COUNT>
26

> <PUBCHEM_ATOM_DEF_STEREO_COUNT>
1

> <PUBCHEM_ATOM_UDEF_STEREO_COUNT>
0

> <PUBCHEM_BOND_DEF_STEREO_COUNT>
0

> <PUBCHEM_BOND_UDEF_STEREO_COUNT>
0

> <PUBCHEM_ISOTOPIC_ATOM_COUNT>
0

> <PUBCHEM_COMPONENT_COUNT>
1

> <PUBCHEM_CACTVS_TAUTO_COUNT>
2

> <PUBCHEM_CONFORMER_ID>
017DA04E00000001

> <PUBCHEM_MMFF94_ENERGY>
75.2664

> <PUBCHEM_FEATURE_SELFOVERLAP>
60.991

> <PUBCHEM_SHAPE_FINGERPRINT>
10 15 17561365084807592341
10165383 225 18340204185715163888
10299344 5 18202282498164782791
10391435 84 18260263088483639859
10595046 47 18340769256121367624
10838868 160 18127680738202042048
10939801 23 18340768229598459734
11089746 13 9439398034535718063
11315181 36 18412263935684152321
11374522 155 18117278262897313516
11524674 6 16630520722935001119
11724838 91 18113335332531276476
12236239 1 18412827949950562929
12516196 113 18334295344721402157
12596602 18 18272371927945016697
12717326 120 15793154794538757521
12730499 353 18413667998968546250
13899415 154 17489868241710652808
14251732 16 18411136930809905155
14251764 18 18335421291656698236
14461889 52 18408039632962964418
14849402 71 18339927124762768440
14856354 85 16558745746181921285
14933364 13 18272089374667828817
15152005 290 18338518673187388028
15183329 4 9151176462887491820
15716309 27 18343581820325250135
15728490 51 18338796818297906231
17844677 252 18268716004617421376
1813 80 17604156917629845983
18335252 98 18413390947032709978
18608769 82 18412258467557580400
21130935 74 18339927017488371019
21267235 1 18260836990972677523
21521721 280 18410577279792586618
22149856 69 18340497672470339593
22224240 67 18186517726858787936
22896161 15 18408885152581852227
23389318 12 18341038714291404399
23424782 7 18409733975664276194
23516275 137 17631475413182868359
23522609 53 17972630729971083189
23559900 14 18411410714444934737
24771293 8 18113903762541701684
2747138 104 17822305556161169889
2838139 119 8718825388765775923
335507 130 18341894133820693030
3383291 50 17822583793608597371
34797466 226 17988931067783953740
3663271 9 18271810086087986889
4073 2 18335425664176466811
4149490 64 17386862780222772913
4325135 7 18408322207366458028
437795 51 18131064987441124160
4461854 278 18129391543830024351
46194498 28 18129383692876622998
5265222 85 17989486354867288334
5381727 24 18408599276487600914
5758199 1 18408323298172223696
59682541 35 18187927326235045176
59755656 520 13254791339917930645
6126387 218 8286204929577703596
6394761 36 11455896866671687872
9831232 110 18054513513266360854

> <PUBCHEM_SHAPE_MULTIPOLES>
503.41
23.72
2.6
0.88
1.12
0.65
0.09
-2.41
-3.28
2.5
0.3
0.08
-0.13
0.15

> <PUBCHEM_SHAPE_SELFOVERLAP>
1088.575

> <PUBCHEM_SHAPE_VOLUME>
279.5

> <PUBCHEM_COORDINATE_TYPE>
2
5
10

$$$$
25010255
  -OEChem-05102415123D

 50 53  0     1  0  0  0  0  0999 V2000
    6.8465    0.9461   -0.3352 S   0  0  0  0  0  0  0  0  0  0  0  0
    8.1079    1.4574    0.1678 O   0  0  0  0  0  0  0  0  0  0  0  0
    6.7896    0.2382   -1.5988 O   0  0  0  0  0  0  0  0  0  0  0  0
    0.4131   -0.1667    0.1114 N   0  0  1  0  0  0  0  0  0  0  0  0
   -2.6726    1.5849   -0.0377 N   0  0  0  0  0  0  0  0  0  0  0  0
    6.0910    0.0347    0.9157 N   0  0  0  0  0  0  0  0  0  0  0  0
   -7.7350   -0.5084    0.1553 N   0  0  0  0  0  0  0  0  0  0  0  0
   -7.6059   -1.7248   -0.4002 N   0  0  0  0  0  0  0  0  0  0  0  0
   -1.5814    0.8266   -0.6023 C   0  0  1  0  0  0  0  0  0  0  0  0
   -0.4037    1.7316   -0.9705 C   0  0  0  0  0  0  0  0  0  0  0  0
   -1.0182   -0.1594    0.4184 C   0  0  0  0  0  0  0  0  0  0  0  0
    0.7554    1.2373   -0.1149 C   0  0  0  0  0  0  0  0  0  0  0  0
    1.2061   -0.7669    1.1740 C   0  0  0  0  0  0  0  0  0  0  0  0
    2.5758   -1.1673    0.6939 C   0  0  0  0  0  0  0  0  0  0  0  0
   -3.9753    1.1173    0.0417 C   0  0  0  0  0  0  0  0  0  0  0  0
    3.6858   -0.3894    1.0231 C   0  0  0  0  0  0  0  0  0  0  0  0
   -4.2790   -0.1599   -0.4462 C   0  0  0  0  0  0  0  0  0  0  0  0
    2.7346   -2.3167   -0.0802 C   0  0  0  0  0  0  0  0  0  0  0  0
   -4.9644    1.9241    0.6072 C   0  0  0  0  0  0  0  0  0  0  0  0
   -5.6049   -0.6152   -0.3548 C   0  0  0  0  0  0  0  0  0  0  0  0
    4.9545   -0.7610    0.5783 C   0  0  0  0  0  0  0  0  0  0  0  0
   -6.5705    0.2087    0.2128 C   0  0  0  0  0  0  0  0  0  0  0  0
   -6.2887    1.4849    0.7052 C   0  0  0  0  0  0  0  0  0  0  0  0
    4.0033   -2.6883   -0.5251 C   0  0  0  0  0  0  0  0  0  0  0  0
    5.1132   -1.9104   -0.1958 C   0  0  0  0  0  0  0  0  0  0  0  0
   -6.3088   -1.7861   -0.7094 C   0  0  0  0  0  0  0  0  0  0  0  0
    5.7316    2.3288   -0.4336 C   0  0  0  0  0  0  0  0  0  0  0  0
   -1.8782    0.3195   -1.5292 H   0  0  0  0  0  0  0  0  0  0  0  0
   -0.5938    2.7980   -0.8089 H   0  0  0  0  0  0  0  0  0  0  0  0
   -0.1606    1.5991   -2.0326 H   0  0  0  0  0  0  0  0  0  0  0  0
   -1.2058    0.1784    1.4468 H   0  0  0  0  0  0  0  0  0  0  0  0
   -1.4538   -1.1570    0.3014 H   0  0  0  0  0  0  0  0  0  0  0  0
    0.7906    1.8078    0.8222 H   0  0  0  0  0  0  0  0  0  0  0  0
    1.7097    1.3601   -0.6366 H   0  0  0  0  0  0  0  0  0  0  0  0
    1.2735   -0.1173    2.0573 H   0  0  0  0  0  0  0  0  0  0  0  0
    0.7163   -1.6841    1.5308 H   0  0  0  0  0  0  0  0  0  0  0  0
   -2.4666    2.4731    0.4066 H   0  0  0  0  0  0  0  0  0  0  0  0
    3.5635    0.5086    1.6244 H   0  0  0  0  0  0  0  0  0  0  0  0
   -3.5459   -0.8227   -0.8891 H   0  0  0  0  0  0  0  0  0  0  0  0
    1.8778   -2.9315   -0.3429 H   0  0  0  0  0  0  0  0  0  0  0  0
   -4.7162    2.9148    0.9829 H   0  0  0  0  0  0  0  0  0  0  0  0
   -7.0584    2.1100    1.1440 H   0  0  0  0  0  0  0  0  0  0  0  0
    4.1272   -3.5849   -1.1255 H   0  0  0  0  0  0  0  0  0  0  0  0
    6.0967   -2.2204   -0.5391 H   0  0  0  0  0  0  0  0  0  0  0  0
    6.0070    0.5197    1.8192 H   0  0  0  0  0  0  0  0  0  0  0  0
   -5.9283   -2.6814   -1.1805 H   0  0  0  0  0  0  0  0  0  0  0  0
   -8.6520   -0.2252    0.4778 H   0  0  0  0  0  0  0  0  0  0  0  0
    5.6678    2.8053    0.5464 H   0  0  0  0  0  0  0  0  0  0  0  0
    4.7526    1.9811   -0.7675 H   0  0  0  0  0  0  0  0  0  0  0  0
    6.1372    3.0354   -1.1613 H   0  0  0  0  0  0  0  0  0  0  0  0
  1  2  2  0  0  0  0
  1  3  2  0  0  0  0
  1  6  1  0  0  0  0
  1 27  1  0  0  0  0
  4 11  1  0  0  0  0
  4 12  1  0  0  0  0
  4 13  1  0  0  0  0
  5  9  1  0  0  0  0
  5 15  1  0  0  0  0
  5 37  1  0  0  0  0
  6 21  1  0  0  0  0
  6 45  1  0  0  0  0
  7  8  1  0  0  0  0
  7 22  1  0  0  0  0
  7 47  1  0  0  0  0
  8 26  2  0  0  0  0
  9 10  1  0  0  0  0
  9 11  1  0  0  0  0
  9 28  1  0  0  0  0
 10 12  1  0  0  0  0
 10 29  1  0  0  0  0
 10 30  1  0  0  0  0
 11 31  1  0  0  0  0
 11 32  1  0  0  0  0
 12 33  1  0  0  0  0
 12 34  1  0  0  0  0
 13 14  1  0  0  0  0
 13 35  1  0  0  0  0
 13 36  1  0  0  0  0
 14 16  2  0  0  0  0
 14 18  1  0  0  0  0
 15 17  2  0  0  0  0
 15 19  1  0  0  0  0
 16 21  1  0  0  0  0
 16 38  1  0  0  0  0
 17 20  1  0  0  0  0
 17 39  1  0  0  0  0
 18 24  2  0  0  0  0
 18 40  1  0  0  0  0
 19 23  2  0  0  0  0
 19 41  1  0  0  0  0
 20 22  2  0  0  0  0
 20 26  1  0  0  0  0
 21 25  2  0  0  0  0
 22 23  1  0  0  0  0
 23 42  1  0  0  0  0
 24 25  1  0  0  0  0
 24 43  1  0  0  0  0
 25 44  1  0  0  0  0
 26 46  1  0  0  0  0
 27 48  1  0  0  0  0
 27 49  1  0  0  0  0
 27 50  1  0  0  0  0
M  END
> <PUBCHEM_COMPOUND_CID>
25010255

> <PUBCHEM_CONFORMER_RMSD>
1.4

> <PUBCHEM_CONFORMER_DIVERSEORDER>
1
44
16
23
57
66
22
39
49
37
50
43
40
53
3
68
67
51
63
32
10
34
8
64
61
20
65
11
60
58
56
29
4
33
12
59
27
5
13
18
2
45
48
52
31
17
41
55
24
47
46
35
6
38
14
62
54
7
28
36
21
42
25
26
15
9
30
19

> <PUBCHEM_MMFF94_PARTIAL_CHARGES>
36
1 1.33
11 0.27
12 0.27
13 0.41
14 -0.14
15 0.1
16 -0.15
17 -0.15
18 -0.15
19 -0.15
2 -0.65
21 0.2
22 -0.15
23 -0.15
24 -0.15
25 -0.15
26 0.14
27 0.11
3 -0.65
37 0.4
38 0.15
39 0.15
4 -0.81
40 0.15
41 0.15
42 0.15
43 0.15
44 0.15
45 0.42
46 0.15
47 0.27
5 -0.87
6 -0.76
7 0.3
8 -0.71
9 0.37

> <PUBCHEM_EFFECTIVE_ROTOR_COUNT>
7

> <PUBCHEM_PHARMACOPHORE_FEATURES>
12
1 2 acceptor
1 3 acceptor
1 4 cation
1 5 cation
1 5 donor
1 6 donor
1 7 donor
1 8 acceptor
5 4 9 10 11 12 rings
5 7 8 20 22 26 rings
6 14 16 18 21 24 25 rings
6 15 17 19 20 22 23 rings

> <PUBCHEM_HEAVY_ATOM_COUNT>
27

> <PUBCHEM_ATOM_DEF_STEREO_COUNT>
1

> <PUBCHEM_ATOM_UDEF_STEREO_COUNT>
0

> <PUBCHEM_BOND_DEF_STEREO_COUNT>
0

> <PUBCHEM_BOND_UDEF_STEREO_COUNT>
0

> <PUBCHEM_ISOTOPIC_ATOM_COUNT>
0

> <PUBCHEM_COMPONENT_COUNT>
1

> <PUBCHEM_CACTVS_TAUTO_COUNT>
2

> <PUBCHEM_CONFORMER_ID>
017DA04F00000001

> <PUBCHEM_MMFF94_ENERGY>
73.5415

> <PUBCHEM_FEATURE_SELFOVERLAP>
61.005

> <PUBCHEM_SHAPE_FINGERPRINT>
10299344 5 18343019982325227355
10391435 84 18260543468270096395
10595046 47 18411699842134994865
10674148 151 11815896761126609718
11089746 13 8934994880623147083
11315181 36 18411981352648038321
11524674 6 15985097523252988519
11724838 91 18186518817880772676
12236239 1 18412263909244305545
12516196 113 18408603634834998601
12596602 18 18059855026525977875
12730499 353 18201433663099855562
1361 2 18335141986065817906
13899415 154 17632856425951719240
13914758 101 8718828695325851175
14251732 16 18412543206334863499
14251752 14 10809344434304339847
14251764 18 18408041823132170249
14461889 52 18410568501006287826
1454969 45 18408602582383304015
14849402 71 18339364166335405185
14856354 85 17346596396449343925
14933364 13 18130785642335382993
15152005 290 18338517565069942852
15301273 46 15769782346938767385
15728490 51 18412260670527812519
18335252 98 18341895190456871026
20105231 36 16845577534309537470
21049683 271 18411699928198838992
21150785 3 18410012156200396443
21267235 1 18408044010104129819
21344244 181 17203620272577088054
21774942 28 12468622899153819551
21792938 703 18114477733254785739
22149856 69 18201725002772166955
23389318 12 18337382838118454063
23424782 7 18411983580586155906
23516275 137 17774182110010721335
23522609 53 18193583106268531976
23559900 14 18342444947199213177
24771293 8 18114185228891554436
335507 130 18343018917004455158
3383291 50 18187368762192969579
34797466 226 17989211456181573604
3663271 9 18201720609453094155
4073 2 18408045100224600219
4325135 7 18407759248775694342
437795 51 17917423280999398832
445580 167 18409726287524909181
4461854 278 18058738026277916495
46194498 28 18128539259277526054
4625314 4 18337108969001167134
5265222 85 17775280611993141207
5381727 24 18408880738574316802
6126387 218 8070028853165851532
6394761 36 11527951162048021400
9831232 110 17984144764714601782

> <PUBCHEM_SHAPE_MULTIPOLES>
522.85
24.38
2.46
0.98
6.27
0.44
-0.02
-0.63
-1.63
-1.47
-0.37
-0.63
-0.01
-1.26

> <PUBCHEM_SHAPE_SELFOVERLAP>
1118.21

> <PUBCHEM_SHAPE_VOLUME>
292.9

> <PUBCHEM_COORDINATE_TYPE>
2
5
10

$$$$
25010256
  -OEChem-05102415123D

 50 53  0     1  0  0  0  0  0999 V2000
    3.4941    2.3741    0.3543 O   0  0  0  0  0  0  0  0  0  0  0  0
    3.2118    4.8148    1.6993 O   0  0  0  0  0  0  0  0  0  0  0  0
    1.3513   -2.8788    0.0385 N   0  0  2  0  0  0  0  0  0  0  0  0
   -2.0296   -2.1683    0.8693 N   0  0  0  0  0  0  0  0  0  0  0  0
   -4.9648    2.2528   -0.5020 N   0  0  0  0  0  0  0  0  0  0  0  0
   -4.4464    2.6351   -1.6810 N   0  0  0  0  0  0  0  0  0  0  0  0
   -0.9759   -2.6501    0.0081 C   0  0  2  0  0  0  0  0  0  0  0  0
   -0.6150   -4.1027    0.3259 C   0  0  0  0  0  0  0  0  0  0  0  0
    0.3138   -1.8647    0.2329 C   0  0  0  0  0  0  0  0  0  0  0  0
    0.8519   -4.0645    0.7344 C   0  0  0  0  0  0  0  0  0  0  0  0
    2.6492   -2.4483    0.5369 C   0  0  0  0  0  0  0  0  0  0  0  0
    3.1516   -1.2277   -0.1875 C   0  0  0  0  0  0  0  0  0  0  0  0
   -2.8086   -1.0581    0.5845 C   0  0  0  0  0  0  0  0  0  0  0  0
   -2.5825   -0.3438   -0.5987 C   0  0  0  0  0  0  0  0  0  0  0  0
    3.0887    0.0232    0.4265 C   0  0  0  0  0  0  0  0  0  0  0  0
   -3.8073   -0.6684    1.4790 C   0  0  0  0  0  0  0  0  0  0  0  0
    3.6800   -1.3481   -1.4727 C   0  0  0  0  0  0  0  0  0  0  0  0
   -3.3841    0.7778   -0.8691 C   0  0  0  0  0  0  0  0  0  0  0  0
   -4.3716    1.1440    0.0387 C   0  0  0  0  0  0  0  0  0  0  0  0
   -4.6134    0.4458    1.2238 C   0  0  0  0  0  0  0  0  0  0  0  0
    3.5546    1.1536   -0.2448 C   0  0  0  0  0  0  0  0  0  0  0  0
    4.1457   -0.2176   -2.1441 C   0  0  0  0  0  0  0  0  0  0  0  0
    4.0829    1.0332   -1.5301 C   0  0  0  0  0  0  0  0  0  0  0  0
   -3.4850    1.7354   -1.9010 C   0  0  0  0  0  0  0  0  0  0  0  0
    2.4339    2.5890    1.2848 C   0  0  0  0  0  0  0  0  0  0  0  0
    2.0748    4.0624    1.2940 C   0  0  0  0  0  0  0  0  0  0  0  0
   -1.2767   -2.6349   -1.0471 H   0  0  0  0  0  0  0  0  0  0  0  0
   -1.2352   -4.5551    1.1070 H   0  0  0  0  0  0  0  0  0  0  0  0
   -0.7303   -4.7133   -0.5788 H   0  0  0  0  0  0  0  0  0  0  0  0
    0.3457   -1.4396    1.2456 H   0  0  0  0  0  0  0  0  0  0  0  0
    0.3979   -1.0455   -0.4885 H   0  0  0  0  0  0  0  0  0  0  0  0
    0.9302   -3.9606    1.8243 H   0  0  0  0  0  0  0  0  0  0  0  0
    1.3785   -4.9746    0.4304 H   0  0  0  0  0  0  0  0  0  0  0  0
    3.3843   -3.2523    0.3977 H   0  0  0  0  0  0  0  0  0  0  0  0
    2.6210   -2.2570    1.6185 H   0  0  0  0  0  0  0  0  0  0  0  0
   -2.1534   -2.6069    1.7756 H   0  0  0  0  0  0  0  0  0  0  0  0
   -1.8188   -0.6050   -1.3207 H   0  0  0  0  0  0  0  0  0  0  0  0
    2.6974    0.0844    1.4381 H   0  0  0  0  0  0  0  0  0  0  0  0
   -3.9739   -1.2317    2.3950 H   0  0  0  0  0  0  0  0  0  0  0  0
    3.7343   -2.3173   -1.9615 H   0  0  0  0  0  0  0  0  0  0  0  0
   -5.3895    0.7500    1.9171 H   0  0  0  0  0  0  0  0  0  0  0  0
    4.5571   -0.3113   -3.1448 H   0  0  0  0  0  0  0  0  0  0  0  0
    4.4471    1.9104   -2.0579 H   0  0  0  0  0  0  0  0  0  0  0  0
   -2.8965    1.8136   -2.8042 H   0  0  0  0  0  0  0  0  0  0  0  0
   -5.7280    2.7953   -0.1172 H   0  0  0  0  0  0  0  0  0  0  0  0
    2.7805    2.2842    2.2789 H   0  0  0  0  0  0  0  0  0  0  0  0
    1.5305    2.0290    1.0128 H   0  0  0  0  0  0  0  0  0  0  0  0
    1.7913    4.3975    0.2913 H   0  0  0  0  0  0  0  0  0  0  0  0
    1.2550    4.2584    1.9914 H   0  0  0  0  0  0  0  0  0  0  0  0
    2.9501    5.7513    1.6945 H   0  0  0  0  0  0  0  0  0  0  0  0
  1 21  1  0  0  0  0
  1 25  1  0  0  0  0
  2 26  1  0  0  0  0
  2 50  1  0  0  0  0
  3  9  1  0  0  0  0
  3 10  1  0  0  0  0
  3 11  1  0  0  0  0
  4  7  1  0  0  0  0
  4 13  1  0  0  0  0
  4 36  1  0  0  0  0
  5  6  1  0  0  0  0
  5 19  1  0  0  0  0
  5 45  1  0  0  0  0
  6 24  2  0  0  0  0
  7  8  1  0  0  0  0
  7  9  1  0  0  0  0
  7 27  1  0  0  0  0
  8 10  1  0  0  0  0
  8 28  1  0  0  0  0
  8 29  1  0  0  0  0
  9 30  1  0  0  0  0
  9 31  1  0  0  0  0
 10 32  1  0  0  0  0
 10 33  1  0  0  0  0
 11 12  1  0  0  0  0
 11 34  1  0  0  0  0
 11 35  1  0  0  0  0
 12 15  2  0  0  0  0
 12 17  1  0  0  0  0
 13 14  2  0  0  0  0
 13 16  1  0  0  0  0
 14 18  1  0  0  0  0
 14 37  1  0  0  0  0
 15 21  1  0  0  0  0
 15 38  1  0  0  0  0
 16 20  2  0  0  0  0
 16 39  1  0  0  0  0
 17 22  2  0  0  0  0
 17 40  1  0  0  0  0
 18 19  2  0  0  0  0
 18 24  1  0  0  0  0
 19 20  1  0  0  0  0
 20 41  1  0  0  0  0
 21 23  2  0  0  0  0
 22 23  1  0  0  0  0
 22 42  1  0  0  0  0
 23 43  1  0  0  0  0
 24 44  1  0  0  0  0
 25 26  1  0  0  0  0
 25 46  1  0  0  0  0
 25 47  1  0  0  0  0
 26 48  1  0  0  0  0
 26 49  1  0  0  0  0
M  END
> <PUBCHEM_COMPOUND_CID>
25010256

> <PUBCHEM_CONFORMER_RMSD>
1.2

> <PUBCHEM_CONFORMER_DIVERSEORDER>
1
83
76
26
48
46
92
37
78
84
27
43
30
66
65
21
90
42
94
91
85
40
86
55
88
67
15
75
64
39
61
54
23
8
93
96
51
60
20
50
53
69
17
52
71
73
58
38
100
63
25
74
11
87
34
36
2
24
98
79
70
47
10
41
28
56
16
5
14
49
57
22
97
12
77
32
35
82
80
44
4
72
68
18
29
31
45
19
7
6
89
9
59
3
81
13
95
62
99
33

> <PUBCHEM_MMFF94_PARTIAL_CHARGES>
35
1 -0.36
10 0.27
11 0.41
12 -0.14
13 0.1
14 -0.15
15 -0.15
16 -0.15
17 -0.15
19 -0.15
2 -0.68
20 -0.15
21 0.08
22 -0.15
23 -0.15
24 0.14
25 0.28
26 0.28
3 -0.81
36 0.4
37 0.15
38 0.15
39 0.15
4 -0.87
40 0.15
41 0.15
42 0.15
43 0.15
44 0.15
45 0.27
5 0.3
50 0.4
6 -0.71
7 0.37
9 0.27

> <PUBCHEM_EFFECTIVE_ROTOR_COUNT>
8

> <PUBCHEM_PHARMACOPHORE_FEATURES>
12
1 1 acceptor
1 2 acceptor
1 2 donor
1 3 cation
1 4 cation
1 4 donor
1 5 donor
1 6 acceptor
5 3 7 8 9 10 rings
5 5 6 18 19 24 rings
6 12 15 17 21 22 23 rings
6 13 14 16 18 19 20 rings

> <PUBCHEM_HEAVY_ATOM_COUNT>
26

> <PUBCHEM_ATOM_DEF_STEREO_COUNT>
1

> <PUBCHEM_ATOM_UDEF_STEREO_COUNT>
0

> <PUBCHEM_BOND_DEF_STEREO_COUNT>
0

> <PUBCHEM_BOND_UDEF_STEREO_COUNT>
0

> <PUBCHEM_ISOTOPIC_ATOM_COUNT>
0

> <PUBCHEM_COMPONENT_COUNT>
1

> <PUBCHEM_CACTVS_TAUTO_COUNT>
2

> <PUBCHEM_CONFORMER_ID>
017DA05000000001

> <PUBCHEM_MMFF94_ENERGY>
75.3082

> <PUBCHEM_FEATURE_SELFOVERLAP>
60.991

> <PUBCHEM_SHAPE_FINGERPRINT>
10256941 240 17617332558476159249
10670039 82 18042703843339286486
10794284 68 11273497247301445419
10842077 115 18196914772777365121
11595378 159 15430042015541418727
11720765 8 18056492643139401878
12100795 323 18120928670684793197
12769317 202 18263363594534462342
12925494 130 18117842093339693853
14347329 18 18041574627938801940
14468879 13 17895485747613531179
14848178 96 18261674762096394663
14932701 244 17769070665004071567
150020 26 18041838389932300366
151778 21 18260834756492502742
15322535 138 18122615325953756800
15322687 12 18338231570615907937
15961568 22 16825590900119046636
16992727 255 18043273352398436852
1768 85 18340496642348010673
17868525 174 17461432521390082194
19309040 13 16914285010991652857
20398071 114 18267582592511903032
20567600 299 18193826059803994197
21033648 29 18408044026234433748
21860390 5 17907854003264117343
22122407 14 18055649313373267377
23536364 44 17908161888426747622
23559900 14 17828199900838746499
25019877 29 14822929460731976134
3187 122 17396137305898612851
3298306 158 18336263440607461343
354706 35 17838867654503645837
4371632 12 18196065907320371909
508706 21 18193559089095606182
5252454 2 18335149716674608894
66674814 147 15883194420012508228
7399639 24 17407689870851778390
7808743 9 17971209255278881798

> <PUBCHEM_SHAPE_MULTIPOLES>
503.41
10.67
5.71
1.72
6.08
1.17
0.49
7.7
2.7
-3.49
-2.79
-0.31
1.32
3.14

> <PUBCHEM_SHAPE_SELFOVERLAP>
1089.285

> <PUBCHEM_SHAPE_VOLUME>
279.3

> <PUBCHEM_COORDINATE_TYPE>
2
5
10

$$$$
25010257
  -OEChem-05102415123D

 50 53  0     1  0  0  0  0  0999 V2000
    2.4235    3.3444    0.6064 S   0  0  0  0  0  0  0  0  0  0  0  0
    2.7048    4.5229    1.4048 O   0  0  0  0  0  0  0  0  0  0  0  0
    2.3584    3.4319   -0.8390 O   0  0  0  0  0  0  0  0  0  0  0  0
    1.2507   -3.0509   -0.1355 N   0  0  2  0  0  0  0  0  0  0  0  0
   -2.1563   -2.3601    0.6002 N   0  0  0  0  0  0  0  0  0  0  0  0
    3.4905    2.0856    1.0996 N   0  0  0  0  0  0  0  0  0  0  0  0
   -4.8993    2.3041   -0.2729 N   0  0  0  0  0  0  0  0  0  0  0  0
   -4.3025    2.8358   -1.3528 N   0  0  0  0  0  0  0  0  0  0  0  0
   -1.0645   -2.7460   -0.2619 C   0  0  2  0  0  0  0  0  0  0  0  0
   -0.7575   -4.2401   -0.1399 C   0  0  0  0  0  0  0  0  0  0  0  0
    0.2275   -2.0429    0.1467 C   0  0  0  0  0  0  0  0  0  0  0  0
    0.6828   -4.3080    0.3510 C   0  0  0  0  0  0  0  0  0  0  0  0
    2.5262   -2.7385    0.4921 C   0  0  0  0  0  0  0  0  0  0  0  0
    3.0996   -1.4429   -0.0173 C   0  0  0  0  0  0  0  0  0  0  0  0
   -2.8905   -1.1961    0.4375 C   0  0  0  0  0  0  0  0  0  0  0  0
    3.0296   -0.2922    0.7680 C   0  0  0  0  0  0  0  0  0  0  0  0
   -2.5772   -0.3262   -0.6144 C   0  0  0  0  0  0  0  0  0  0  0  0
    3.7009   -1.3936   -1.2749 C   0  0  0  0  0  0  0  0  0  0  0  0
   -3.9315   -0.9078    1.3220 C   0  0  0  0  0  0  0  0  0  0  0  0
   -3.3347    0.8478   -0.7625 C   0  0  0  0  0  0  0  0  0  0  0  0
    3.5612    0.9077    0.2958 C   0  0  0  0  0  0  0  0  0  0  0  0
   -4.3658    1.1105    0.1325 C   0  0  0  0  0  0  0  0  0  0  0  0
   -4.6945    0.2567    1.1876 C   0  0  0  0  0  0  0  0  0  0  0  0
    4.2325   -0.1936   -1.7472 C   0  0  0  0  0  0  0  0  0  0  0  0
    4.1626    0.9570   -0.9618 C   0  0  0  0  0  0  0  0  0  0  0  0
   -3.3511    1.9471   -1.6477 C   0  0  0  0  0  0  0  0  0  0  0  0
    0.8744    2.6875    1.1838 C   0  0  0  0  0  0  0  0  0  0  0  0
   -1.3012   -2.5691   -1.3188 H   0  0  0  0  0  0  0  0  0  0  0  0
   -0.8328   -4.7096   -1.1290 H   0  0  0  0  0  0  0  0  0  0  0  0
   -1.4339   -4.7804    0.5310 H   0  0  0  0  0  0  0  0  0  0  0  0
    0.3739   -1.1311   -0.4415 H   0  0  0  0  0  0  0  0  0  0  0  0
    0.2087   -1.7695    1.2107 H   0  0  0  0  0  0  0  0  0  0  0  0
    1.2051   -5.1811   -0.0527 H   0  0  0  0  0  0  0  0  0  0  0  0
    0.6982   -4.3651    1.4470 H   0  0  0  0  0  0  0  0  0  0  0  0
    2.4375   -2.7027    1.5866 H   0  0  0  0  0  0  0  0  0  0  0  0
    3.2493   -3.5372    0.2792 H   0  0  0  0  0  0  0  0  0  0  0  0
   -2.3443   -2.9207    1.4244 H   0  0  0  0  0  0  0  0  0  0  0  0
    2.5594   -0.3272    1.7482 H   0  0  0  0  0  0  0  0  0  0  0  0
   -1.7778   -0.5045   -1.3229 H   0  0  0  0  0  0  0  0  0  0  0  0
    3.7622   -2.2835   -1.8956 H   0  0  0  0  0  0  0  0  0  0  0  0
   -4.1658   -1.5918    2.1354 H   0  0  0  0  0  0  0  0  0  0  0  0
   -5.5033    0.4823    1.8734 H   0  0  0  0  0  0  0  0  0  0  0  0
    4.7033   -0.1559   -2.7252 H   0  0  0  0  0  0  0  0  0  0  0  0
    4.5931    1.8811   -1.3386 H   0  0  0  0  0  0  0  0  0  0  0  0
    3.5098    1.9014    2.1117 H   0  0  0  0  0  0  0  0  0  0  0  0
   -2.7076    2.1361   -2.4954 H   0  0  0  0  0  0  0  0  0  0  0  0
   -5.6712    2.8095    0.1437 H   0  0  0  0  0  0  0  0  0  0  0  0
    0.9445    2.5003    2.2569 H   0  0  0  0  0  0  0  0  0  0  0  0
    0.6438    1.7710    0.6381 H   0  0  0  0  0  0  0  0  0  0  0  0
    0.1002    3.4333    0.9894 H   0  0  0  0  0  0  0  0  0  0  0  0
  1  2  2  0  0  0  0
  1  3  2  0  0  0  0
  1  6  1  0  0  0  0
  1 27  1  0  0  0  0
  4 11  1  0  0  0  0
  4 12  1  0  0  0  0
  4 13  1  0  0  0  0
  5  9  1  0  0  0  0
  5 15  1  0  0  0  0
  5 37  1  0  0  0  0
  6 21  1  0  0  0  0
  6 45  1  0  0  0  0
  7  8  1  0  0  0  0
  7 22  1  0  0  0  0
  7 47  1  0  0  0  0
  8 26  2  0  0  0  0
  9 10  1  0  0  0  0
  9 11  1  0  0  0  0
  9 28  1  0  0  0  0
 10 12  1  0  0  0  0
 10 29  1  0  0  0  0
 10 30  1  0  0  0  0
 11 31  1  0  0  0  0
 11 32  1  0  0  0  0
 12 33  1  0  0  0  0
 12 34  1  0  0  0  0
 13 14  1  0  0  0  0
 13 35  1  0  0  0  0
 13 36  1  0  0  0  0
 14 16  2  0  0  0  0
 14 18  1  0  0  0  0
 15 17  2  0  0  0  0
 15 19  1  0  0  0  0
 16 21  1  0  0  0  0
 16 38  1  0  0  0  0
 17 20  1  0  0  0  0
 17 39  1  0  0  0  0
 18 24  2  0  0  0  0
 18 40  1  0  0  0  0
 19 23  2  0  0  0  0
 19 41  1  0  0  0  0
 20 22  2  0  0  0  0
 20 26  1  0  0  0  0
 21 25  2  0  0  0  0
 22 23  1  0  0  0  0
 23 42  1  0  0  0  0
 24 25  1  0  0  0  0
 24 43  1  0  0  0  0
 25 44  1  0  0  0  0
 26 46  1  0  0  0  0
 27 48  1  0  0  0  0
 27 49  1  0  0  0  0
 27 50  1  0  0  0  0
M  END
> <PUBCHEM_COMPOUND_CID>
25010257

> <PUBCHEM_CONFORMER_RMSD>
1.4

> <PUBCHEM_CONFORMER_DIVERSEORDER>
1
44
48
4
25
26
27
53
35
66
62
64
40
57
6
20
59
38
17
9
33
46
11
55
23
18
60
61
21
47
3
15
5
51
45
8
34
56
22
42
65
2
41
31
16
49
13
58
14
63
50
36
39
19
52
28
37
29
43
54
32
7
12
10
24
30

> <PUBCHEM_MMFF94_PARTIAL_CHARGES>
36
1 1.33
11 0.27
12 0.27
13 0.41
14 -0.14
15 0.1
16 -0.15
17 -0.15
18 -0.15
19 -0.15
2 -0.65
21 0.2
22 -0.15
23 -0.15
24 -0.15
25 -0.15
26 0.14
27 0.11
3 -0.65
37 0.4
38 0.15
39 0.15
4 -0.81
40 0.15
41 0.15
42 0.15
43 0.15
44 0.15
45 0.42
46 0.15
47 0.27
5 -0.87
6 -0.76
7 0.3
8 -0.71
9 0.37

> <PUBCHEM_EFFECTIVE_ROTOR_COUNT>
7

> <PUBCHEM_PHARMACOPHORE_FEATURES>
12
1 2 acceptor
1 3 acceptor
1 4 cation
1 5 cation
1 5 donor
1 6 donor
1 7 donor
1 8 acceptor
5 4 9 10 11 12 rings
5 7 8 20 22 26 rings
6 14 16 18 21 24 25 rings
6 15 17 19 20 22 23 rings

> <PUBCHEM_HEAVY_ATOM_COUNT>
27

> <PUBCHEM_ATOM_DEF_STEREO_COUNT>
1

> <PUBCHEM_ATOM_UDEF_STEREO_COUNT>
0

> <PUBCHEM_BOND_DEF_STEREO_COUNT>
0

> <PUBCHEM_BOND_UDEF_STEREO_COUNT>
0

> <PUBCHEM_ISOTOPIC_ATOM_COUNT>
0

> <PUBCHEM_COMPONENT_COUNT>
1

> <PUBCHEM_CACTVS_TAUTO_COUNT>
2

> <PUBCHEM_CONFORMER_ID>
017DA05100000001

> <PUBCHEM_MMFF94_ENERGY>
73.1774

> <PUBCHEM_FEATURE_SELFOVERLAP>
61.005

> <PUBCHEM_SHAPE_FINGERPRINT>
10190206 1 17978823141927495646
10256941 240 17617331454711801101
10439779 11 18339905092096608458
10794284 68 10913209272822080649
10842077 115 18196348515725531929
11211813 163 17612332031950502092
12100795 323 18191860330582539437
12769317 202 18265049137359598623
12925494 130 18193558870691123457
12978246 48 18409447028730458216
13122387 1 18411135831419824128
13422730 73 17759472852053798661
14114211 80 18268454397979801279
14251757 17 18410573980941445537
14428016 6 18120913059317209221
14468879 13 18113908121949065059
14848178 96 18336827468476491135
150020 26 18188211983386623277
15082195 135 18195222466185430495
151778 21 18408608062782763465
15210252 30 18262527983520709268
15322535 138 18123177172084726264
15322687 12 18338792321609481097
15961568 22 16970266826245746542
16067690 210 16081943529176443413
16992727 255 18188793720629655116
1768 85 18341059583700817897
17868525 174 17535741897998639618
20398071 114 18267581484352188344
20567600 299 18267010661818724061
20621476 13 18338509716803027499
20764821 26 18337661001153354124
21304303 172 16824454489985372962
21458453 9 17972627608326080795
21860390 5 18055066567029303366
23536364 44 17909005213840042030
23559900 14 17903353711020078971
25019877 29 14894982661023498614
325973 47 17977664217009304073
3298306 158 18337387137290851263
354706 35 17981297274000210973
4371632 12 18196344079451414277
463206 1 17043724618145436040
508706 21 18195243545256995822
5252454 2 18334017211287569302
6371009 1 18194658570484732618
653340 110 17620183678173677408
7808743 9 18117009981805915238

> <PUBCHEM_SHAPE_MULTIPOLES>
522.85
10.28
6.02
1.39
5.83
0.36
-0.23
-6.46
-1.37
-2.56
1.02
-0.07
-0.85
2.21

> <PUBCHEM_SHAPE_SELFOVERLAP>
1118.987

> <PUBCHEM_SHAPE_VOLUME>
292.7

> <PUBCHEM_COORDINATE_TYPE>
2
5
10

$$$$
25010258
  -OEChem-05102415123D

 53 56  0     1  0  0  0  0  0999 V2000
    0.8150   -3.6283    0.4358 O   0  0  0  0  0  0  0  0  0  0  0  0
    3.4837   -3.6849    0.7417 O   0  0  0  0  0  0  0  0  0  0  0  0
   -3.3318    0.2499    0.1183 N   0  0  2  0  0  0  0  0  0  0  0  0
   -0.9056    3.0106    0.8128 N   0  0  0  0  0  0  0  0  0  0  0  0
    4.1941    2.0671   -0.9528 N   0  0  0  0  0  0  0  0  0  0  0  0
    4.0329    1.1984   -1.9648 N   0  0  0  0  0  0  0  0  0  0  0  0
    3.4527   -2.0685    2.3794 N   0  0  0  0  0  0  0  0  0  0  0  0
   -2.0354    2.3608    0.1813 C   0  0  2  0  0  0  0  0  0  0  0  0
   -3.3114    3.1512    0.4732 C   0  0  0  0  0  0  0  0  0  0  0  0
   -2.1554    0.9190    0.6927 C   0  0  0  0  0  0  0  0  0  0  0  0
   -4.5324    2.4052   -0.0536 C   0  0  0  0  0  0  0  0  0  0  0  0
   -4.5688    0.9654    0.4600 C   0  0  0  0  0  0  0  0  0  0  0  0
   -3.4028   -1.1394    0.5708 C   0  0  0  0  0  0  0  0  0  0  0  0
   -2.4159   -2.0162   -0.1531 C   0  0  0  0  0  0  0  0  0  0  0  0
    0.4061    2.8171    0.4186 C   0  0  0  0  0  0  0  0  0  0  0  0
    0.6841    1.9506   -0.6461 C   0  0  0  0  0  0  0  0  0  0  0  0
    1.4329    3.4882    1.0853 C   0  0  0  0  0  0  0  0  0  0  0  0
   -1.2429   -2.4204    0.4845 C   0  0  0  0  0  0  0  0  0  0  0  0
   -2.6747   -2.4243   -1.4615 C   0  0  0  0  0  0  0  0  0  0  0  0
    2.0229    1.7692   -1.0315 C   0  0  0  0  0  0  0  0  0  0  0  0
    3.0260    2.4497   -0.3503 C   0  0  0  0  0  0  0  0  0  0  0  0
    2.7704    3.3179    0.7134 C   0  0  0  0  0  0  0  0  0  0  0  0
   -0.3290   -3.2331   -0.1863 C   0  0  0  0  0  0  0  0  0  0  0  0
   -1.7608   -3.2369   -2.1324 C   0  0  0  0  0  0  0  0  0  0  0  0
   -0.5880   -3.6412   -1.4947 C   0  0  0  0  0  0  0  0  0  0  0  0
    2.7108    1.0194   -2.0095 C   0  0  0  0  0  0  0  0  0  0  0  0
    1.3609   -2.7445    1.4141 C   0  0  0  0  0  0  0  0  0  0  0  0
    2.8626   -2.9021    1.4547 C   0  0  0  0  0  0  0  0  0  0  0  0
   -1.9258    2.3657   -0.9113 H   0  0  0  0  0  0  0  0  0  0  0  0
   -3.4225    3.3070    1.5545 H   0  0  0  0  0  0  0  0  0  0  0  0
   -3.2563    4.1478    0.0189 H   0  0  0  0  0  0  0  0  0  0  0  0
   -2.2123    0.9204    1.7909 H   0  0  0  0  0  0  0  0  0  0  0  0
   -1.2470    0.3679    0.4359 H   0  0  0  0  0  0  0  0  0  0  0  0
   -4.5155    2.4044   -1.1509 H   0  0  0  0  0  0  0  0  0  0  0  0
   -5.4451    2.9297    0.2509 H   0  0  0  0  0  0  0  0  0  0  0  0
   -4.7333    0.9639    1.5456 H   0  0  0  0  0  0  0  0  0  0  0  0
   -5.4293    0.4656   -0.0013 H   0  0  0  0  0  0  0  0  0  0  0  0
   -3.2791   -1.2195    1.6595 H   0  0  0  0  0  0  0  0  0  0  0  0
   -4.3985   -1.5572    0.3650 H   0  0  0  0  0  0  0  0  0  0  0  0
   -1.0727    3.5810    1.6346 H   0  0  0  0  0  0  0  0  0  0  0  0
   -0.0732    1.4123   -1.2021 H   0  0  0  0  0  0  0  0  0  0  0  0
    1.2045    4.1593    1.9110 H   0  0  0  0  0  0  0  0  0  0  0  0
   -1.0795   -2.1110    1.5132 H   0  0  0  0  0  0  0  0  0  0  0  0
   -3.5848   -2.1158   -1.9692 H   0  0  0  0  0  0  0  0  0  0  0  0
    3.5692    3.8380    1.2300 H   0  0  0  0  0  0  0  0  0  0  0  0
   -1.9621   -3.5545   -3.1512 H   0  0  0  0  0  0  0  0  0  0  0  0
    0.1205   -4.2740   -2.0223 H   0  0  0  0  0  0  0  0  0  0  0  0
    2.3015    0.3494   -2.7524 H   0  0  0  0  0  0  0  0  0  0  0  0
    5.1345    2.3621   -0.7214 H   0  0  0  0  0  0  0  0  0  0  0  0
    0.9513   -2.9938    2.3992 H   0  0  0  0  0  0  0  0  0  0  0  0
    1.1637   -1.6919    1.1714 H   0  0  0  0  0  0  0  0  0  0  0  0
    4.4584   -2.0671    2.5139 H   0  0  0  0  0  0  0  0  0  0  0  0
    2.9144   -1.4294    2.9557 H   0  0  0  0  0  0  0  0  0  0  0  0
  1 23  1  0  0  0  0
  1 27  1  0  0  0  0
  2 28  2  0  0  0  0
  3 10  1  0  0  0  0
  3 12  1  0  0  0  0
  3 13  1  0  0  0  0
  4  8  1  0  0  0  0
  4 15  1  0  0  0  0
  4 40  1  0  0  0  0
  5  6  1  0  0  0  0
  5 21  1  0  0  0  0
  5 49  1  0  0  0  0
  6 26  2  0  0  0  0
  7 28  1  0  0  0  0
  7 52  1  0  0  0  0
  7 53  1  0  0  0  0
  8  9  1  0  0  0  0
  8 10  1  0  0  0  0
  8 29  1  0  0  0  0
  9 11  1  0  0  0  0
  9 30  1  0  0  0  0
  9 31  1  0  0  0  0
 10 32  1  0  0  0  0
 10 33  1  0  0  0  0
 11 12  1  0  0  0  0
 11 34  1  0  0  0  0
 11 35  1  0  0  0  0
 12 36  1  0  0  0  0
 12 37  1  0  0  0  0
 13 14  1  0  0  0  0
 13 38  1  0  0  0  0
 13 39  1  0  0  0  0
 14 18  2  0  0  0  0
 14 19  1  0  0  0  0
 15 16  2  0  0  0  0
 15 17  1  0  0  0  0
 16 20  1  0  0  0  0
 16 41  1  0  0  0  0
 17 22  2  0  0  0  0
 17 42  1  0  0  0  0
 18 23  1  0  0  0  0
 18 43  1  0  0  0  0
 19 24  2  0  0  0  0
 19 44  1  0  0  0  0
 20 21  2  0  0  0  0
 20 26  1  0  0  0  0
 21 22  1  0  0  0  0
 22 45  1  0  0  0  0
 23 25  2  0  0  0  0
 24 25  1  0  0  0  0
 24 46  1  0  0  0  0
 25 47  1  0  0  0  0
 26 48  1  0  0  0  0
 27 28  1  0  0  0  0
 27 50  1  0  0  0  0
 27 51  1  0  0  0  0
M  END
> <PUBCHEM_COMPOUND_CID>
25010258

> <PUBCHEM_CONFORMER_RMSD>
1

> <PUBCHEM_CONFORMER_DIVERSEORDER>
1
16
116
182
285
286
359
212
438
92
340
231
335
323
376
342
29
120
319
344
259
387
111
415
247
294
336
388
109
304
162
361
235
351
205
385
332
192
242
139
278
132
382
75
355
170
444
41
106
161
364
310
271
213
433
251
322
208
353
306
417
371
288
156
441
149
130
197
144
200
202
328
82
405
233
6
422
408
152
330
258
93
295
317
157
237
187
298
199
189
151
169
227
368
321
263
79
241
230
185
166
411
372
268
71
50
314
222
100
85
137
309
105
390
381
2
48
19
26
378
145
289
380
128
432
150
37
119
420
392
57
338
181
102
214
188
373
257
243
383
404
148
219
357
143
419
362
277
291
38
287
327
107
308
366
167
339
299
290
160
138
435
45
224
126
424
292
30
99
301
135
68
403
240
103
269
302
124
356
43
236
44
250
305
80
234
267
174
337
274
265
32
98
315
255
146
86
311
77
5
24
70
445
260
131
439
210
318
331
349
226
153
96
325
186
275
22
343
206
272
142
391
410
398
284
56
115
127
78
394
168
42
229
211
34
421
175
396
194
220
244
326
133
225
262
239
437
254
369
164
23
67
39
246
95
4
333
316
171
384
125
256
252
238
165
35
12
379
427
147
412
386
13
81
400
217
253
113
204
221
47
178
300
218
63
273
179
72
209
354
249
163
358
121
442
350
276
228
409
430
312
140
248
245
158
406
7
154
134
216
136
261
203
370
3
266
297
434
223
196
440
88
436
17
375
377
69
20
401
117
413
363
53
283
418
348
426
201
65
341
345
159
8
389
155
279
110
320
74
177
112
402
429
215
28
87
360
425
18
91
303
122
193
428
282
173
296
232
329
198
94
416
84
367
15
270
73
334
307
172
76
54
46
25
280
104
59
66
431
55
346
108
114
414
36
195
90
183
31
64
352
14
397
395
10
11
180
60
58
190
62
21
347
281
9
49
324
399
61
293
264
33
89
51
97
191
83
176
207
27
141
407
365
52
423
40
393
443
123
374
313
118
101
184
129

> <PUBCHEM_MMFF94_PARTIAL_CHARGES>
37
1 -0.36
10 0.27
12 0.27
13 0.41
14 -0.14
15 0.1
16 -0.15
17 -0.15
18 -0.15
19 -0.15
2 -0.57
21 -0.15
22 -0.15
23 0.08
24 -0.15
25 -0.15
26 0.14
27 0.34
28 0.57
3 -0.81
4 -0.87
40 0.4
41 0.15
42 0.15
43 0.15
44 0.15
45 0.15
46 0.15
47 0.15
48 0.15
49 0.27
5 0.3
52 0.37
53 0.37
6 -0.71
7 -0.8
8 0.37

> <PUBCHEM_EFFECTIVE_ROTOR_COUNT>
8.2

> <PUBCHEM_PHARMACOPHORE_FEATURES>
12
1 1 acceptor
1 2 acceptor
1 3 cation
1 4 cation
1 4 donor
1 5 donor
1 6 acceptor
1 7 donor
5 5 6 20 21 26 rings
6 14 18 19 23 24 25 rings
6 15 16 17 20 21 22 rings
6 3 8 9 10 11 12 rings

> <PUBCHEM_HEAVY_ATOM_COUNT>
28

> <PUBCHEM_ATOM_DEF_STEREO_COUNT>
0

> <PUBCHEM_ATOM_UDEF_STEREO_COUNT>
1

> <PUBCHEM_BOND_DEF_STEREO_COUNT>
0

> <PUBCHEM_BOND_UDEF_STEREO_COUNT>
0

> <PUBCHEM_ISOTOPIC_ATOM_COUNT>
0

> <PUBCHEM_COMPONENT_COUNT>
1

> <PUBCHEM_CACTVS_TAUTO_COUNT>
4

> <PUBCHEM_CONFORMER_ID>
017DA05200000001

> <PUBCHEM_MMFF94_ENERGY>
73.3989

> <PUBCHEM_FEATURE_SELFOVERLAP>
60.995

> <PUBCHEM_SHAPE_FINGERPRINT>
10006869 2 18339646745872870179
1100329 8 18337956662449117822
11513181 2 18058718114297251094
11828532 37 14871842390824970106
12156800 1 16557310887454183063
12202916 173 16759420073982412406
12553582 1 16970562590478502101
12788726 201 17906173202124618320
140371 6 17618790159075946113
14114206 34 17831864920563780764
14117953 113 17472133973267360365
14659021 117 17764585808687852544
14725015 67 17692527127743344698
15297060 5 17843124701875696754
15322534 239 18263658406212769846
15840311 113 15974405558731906529
15961568 22 17619065027971092055
17627616 140 18408320007858223954
19611394 137 18117578236186957051
22113638 7 18123456198956022987
3298306 158 18410582764687427853
474144 1 18115880589905888254
5282940 2 18333453140315794514
57091435 65 18408046216572686026
6287921 2 16974214592226720538
9709674 26 17696199479495524037

> <PUBCHEM_SHAPE_MULTIPOLES>
539.58
7.66
7
1.78
1.97
3.34
0.37
-3.63
1.43
-0.58
-2.05
1.31
1.56
-2.72

> <PUBCHEM_SHAPE_SELFOVERLAP>
1164.176

> <PUBCHEM_SHAPE_VOLUME>
296.8

> <PUBCHEM_COORDINATE_TYPE>
2
5
10

$$$$
25008845
  -OEChem-05102415123D

 56 60  0     1  0  0  0  0  0999 V2000
   -0.6335   -2.2479    0.9940 O   0  0  0  0  0  0  0  0  0  0  0  0
   -0.1205    3.3432    0.0629 N   0  0  2  0  0  0  0  0  0  0  0  0
    3.0792    1.4866    0.6157 N   0  0  0  0  0  0  0  0  0  0  0  0
   -3.2863   -1.4930    0.5455 N   0  0  0  0  0  0  0  0  0  0  0  0
    2.9636   -3.7709   -0.9204 N   0  0  0  0  0  0  0  0  0  0  0  0
    2.0115   -3.8127   -1.8673 N   0  0  0  0  0  0  0  0  0  0  0  0
   -1.1034   -2.9628    3.1272 N   0  0  0  0  0  0  0  0  0  0  0  0
    2.1912    2.4525    0.0026 C   0  0  1  0  0  0  0  0  0  0  0  0
    0.7911    2.3325    0.6191 C   0  0  0  0  0  0  0  0  0  0  0  0
    2.7533    3.8615    0.1952 C   0  0  0  0  0  0  0  0  0  0  0  0
    1.7615    4.9041   -0.3090 C   0  0  0  0  0  0  0  0  0  0  0  0
    0.3788    4.7025    0.3120 C   0  0  0  0  0  0  0  0  0  0  0  0
   -1.4641    3.1820    0.6182 C   0  0  0  0  0  0  0  0  0  0  0  0
   -2.1940    2.0230   -0.0069 C   0  0  0  0  0  0  0  0  0  0  0  0
    3.1019    0.1457    0.2766 C   0  0  0  0  0  0  0  0  0  0  0  0
   -2.3236    0.8285    0.7075 C   0  0  0  0  0  0  0  0  0  0  0  0
   -3.0095   -0.2237    0.0900 C   0  0  0  0  0  0  0  0  0  0  0  0
   -2.7291    2.1566   -1.2865 C   0  0  0  0  0  0  0  0  0  0  0  0
   -3.5563   -0.1182   -1.1907 C   0  0  0  0  0  0  0  0  0  0  0  0
    2.2286   -0.3295   -0.7099 C   0  0  0  0  0  0  0  0  0  0  0  0
   -3.4124    1.0954   -1.8918 C   0  0  0  0  0  0  0  0  0  0  0  0
    3.9944   -0.7136    0.9201 C   0  0  0  0  0  0  0  0  0  0  0  0
    2.2687   -1.6944   -1.0405 C   0  0  0  0  0  0  0  0  0  0  0  0
   -4.1710   -1.3671   -1.4864 C   0  0  0  0  0  0  0  0  0  0  0  0
   -3.9878   -2.1915   -0.4001 C   0  0  0  0  0  0  0  0  0  0  0  0
    3.1671   -2.5281   -0.3839 C   0  0  0  0  0  0  0  0  0  0  0  0
    4.0461   -2.0746    0.6021 C   0  0  0  0  0  0  0  0  0  0  0  0
   -2.8996   -2.0270    1.8338 C   0  0  0  0  0  0  0  0  0  0  0  0
    1.5910   -2.5477   -1.9374 C   0  0  0  0  0  0  0  0  0  0  0  0
   -1.4368   -2.4111    1.9082 C   0  0  0  0  0  0  0  0  0  0  0  0
    2.1397    2.2986   -1.0834 H   0  0  0  0  0  0  0  0  0  0  0  0
    0.3992    1.3293    0.4320 H   0  0  0  0  0  0  0  0  0  0  0  0
    0.8587    2.4358    1.7119 H   0  0  0  0  0  0  0  0  0  0  0  0
    2.9612    4.0453    1.2577 H   0  0  0  0  0  0  0  0  0  0  0  0
    3.7089    3.9673   -0.3322 H   0  0  0  0  0  0  0  0  0  0  0  0
    1.6871    4.8400   -1.4020 H   0  0  0  0  0  0  0  0  0  0  0  0
    2.1301    5.9087   -0.0727 H   0  0  0  0  0  0  0  0  0  0  0  0
   -0.3011    5.4381   -0.1350 H   0  0  0  0  0  0  0  0  0  0  0  0
    0.4231    4.9106    1.3893 H   0  0  0  0  0  0  0  0  0  0  0  0
   -2.0703    4.0768    0.4171 H   0  0  0  0  0  0  0  0  0  0  0  0
   -1.4436    3.0918    1.7130 H   0  0  0  0  0  0  0  0  0  0  0  0
    3.6655    1.7890    1.3861 H   0  0  0  0  0  0  0  0  0  0  0  0
   -1.9073    0.7209    1.7039 H   0  0  0  0  0  0  0  0  0  0  0  0
   -2.6221    3.0904   -1.8337 H   0  0  0  0  0  0  0  0  0  0  0  0
    1.5232    0.2935   -1.2452 H   0  0  0  0  0  0  0  0  0  0  0  0
   -3.8246    1.2133   -2.8899 H   0  0  0  0  0  0  0  0  0  0  0  0
    4.6685   -0.3326    1.6848 H   0  0  0  0  0  0  0  0  0  0  0  0
   -4.6906   -1.6354   -2.3960 H   0  0  0  0  0  0  0  0  0  0  0  0
   -4.2986   -3.2136   -0.2293 H   0  0  0  0  0  0  0  0  0  0  0  0
    4.7384   -2.7436    1.1009 H   0  0  0  0  0  0  0  0  0  0  0  0
   -3.5148   -2.9107    2.0382 H   0  0  0  0  0  0  0  0  0  0  0  0
   -3.1255   -1.2736    2.5961 H   0  0  0  0  0  0  0  0  0  0  0  0
    0.8068   -2.2984   -2.6382 H   0  0  0  0  0  0  0  0  0  0  0  0
    3.4411   -4.6319   -0.6846 H   0  0  0  0  0  0  0  0  0  0  0  0
   -0.1547   -3.2659    3.3205 H   0  0  0  0  0  0  0  0  0  0  0  0
   -1.7830   -3.0862    3.8710 H   0  0  0  0  0  0  0  0  0  0  0  0
  1 30  2  0  0  0  0
  2  9  1  0  0  0  0
  2 12  1  0  0  0  0
  2 13  1  0  0  0  0
  3  8  1  0  0  0  0
  3 15  1  0  0  0  0
  3 42  1  0  0  0  0
  4 17  1  0  0  0  0
  4 25  1  0  0  0  0
  4 28  1  0  0  0  0
  5  6  1  0  0  0  0
  5 26  1  0  0  0  0
  5 54  1  0  0  0  0
  6 29  2  0  0  0  0
  7 30  1  0  0  0  0
  7 55  1  0  0  0  0
  7 56  1  0  0  0  0
  8  9  1  0  0  0  0
  8 10  1  0  0  0  0
  8 31  1  0  0  0  0
  9 32  1  0  0  0  0
  9 33  1  0  0  0  0
 10 11  1  0  0  0  0
 10 34  1  0  0  0  0
 10 35  1  0  0  0  0
 11 12  1  0  0  0  0
 11 36  1  0  0  0  0
 11 37  1  0  0  0  0
 12 38  1  0  0  0  0
 12 39  1  0  0  0  0
 13 14  1  0  0  0  0
 13 40  1  0  0  0  0
 13 41  1  0  0  0  0
 14 16  2  0  0  0  0
 14 18  1  0  0  0  0
 15 20  2  0  0  0  0
 15 22  1  0  0  0  0
 16 17  1  0  0  0  0
 16 43  1  0  0  0  0
 17 19  2  0  0  0  0
 18 21  2  0  0  0  0
 18 44  1  0  0  0  0
 19 21  1  0  0  0  0
 19 24  1  0  0  0  0
 20 23  1  0  0  0  0
 20 45  1  0  0  0  0
 21 46  1  0  0  0  0
 22 27  2  0  0  0  0
 22 47  1  0  0  0  0
 23 26  2  0  0  0  0
 23 29  1  0  0  0  0
 24 25  2  0  0  0  0
 24 48  1  0  0  0  0
 25 49  1  0  0  0  0
 26 27  1  0  0  0  0
 27 50  1  0  0  0  0
 28 30  1  0  0  0  0
 28 51  1  0  0  0  0
 28 52  1  0  0  0  0
 29 53  1  0  0  0  0
M  END
> <PUBCHEM_COMPOUND_CID>
25008845

> <PUBCHEM_CONFORMER_RMSD>
1

> <PUBCHEM_CONFORMER_DIVERSEORDER>
1
120
275
185
143
230
67
383
402
221
358
263
353
287
361
87
181
236
93
398
79
314
379
419
292
399
174
25
228
129
285
205
94
299
233
7
190
119
389
423
371
121
413
348
351
98
62
144
311
154
139
246
393
206
85
176
66
256
201
19
99
255
411
302
110
57
194
417
252
329
145
336
73
168
370
216
101
105
149
141
198
68
11
208
376
88
258
365
387
271
123
300
184
135
17
226
372
45
382
268
261
128
422
151
320
122
125
321
164
31
280
84
4
345
367
203
424
395
323
415
325
113
89
222
272
407
134
270
64
426
381
5
102
400
53
319
279
49
238
307
210
207
69
239
186
354
169
160
286
342
401
29
374
355
277
347
341
249
224
147
38
331
108
251
234
80
193
34
50
16
297
278
377
349
27
309
162
409
83
131
324
204
60
61
298
421
343
44
178
52
118
388
394
195
153
78
86
209
296
10
2
183
408
425
77
166
344
104
253
290
71
41
360
13
12
284
316
262
366
127
117
156
282
391
82
392
65
20
418
227
173
350
188
214
180
211
267
244
384
357
92
429
242
217
72
158
191
265
380
177
250
430
202
304
322
74
243
58
289
337
310
215
18
406
152
338
28
219
291
212
182
97
305
157
364
416
264
106
332
420
373
276
235
269
274
385
200
403
405
315
283
81
114
3
294
96
356
133
163
363
54
273
39
431
36
165
107
412
293
196
369
404
111
327
375
308
32
240
410
247
91
223
339
21
6
30
59
95
248
172
241
260
390
90
362
213
37
100
47
254
340
378
295
8
175
109
116
334
220
56
51
396
303
43
237
189
313
368
142
326
150
232
9
103
15
124
312
218
170
171
231
112
55
335
192
46
317
155
167
229
328
427
24
288
14
306
318
146
257
245
148
414
22
75
63
26
159
70
35
259
137
397
161
48
266
115
40
76
132
330
199
126
136
138
386
140
187
197
352
130
225
33
359
281
333
179
42
428
346
23
301

> <PUBCHEM_MMFF94_PARTIAL_CHARGES>
39
1 -0.57
12 0.27
13 0.41
14 -0.14
15 0.1
16 -0.15
17 -0.15
18 -0.15
2 -0.81
20 -0.15
21 -0.15
22 -0.15
24 -0.15
25 -0.3
26 -0.15
27 -0.15
28 0.32
29 0.14
3 -0.87
30 0.57
4 0.05
42 0.4
43 0.15
44 0.15
45 0.15
46 0.15
47 0.15
48 0.15
49 0.15
5 0.3
50 0.15
53 0.15
54 0.27
55 0.37
56 0.37
6 -0.71
7 -0.8
8 0.37
9 0.27

> <PUBCHEM_EFFECTIVE_ROTOR_COUNT>
7.2

> <PUBCHEM_PHARMACOPHORE_FEATURES>
13
1 1 acceptor
1 2 cation
1 3 cation
1 3 donor
1 4 cation
1 5 donor
1 6 acceptor
1 7 donor
5 4 17 19 24 25 rings
5 5 6 23 26 29 rings
6 14 16 17 18 19 21 rings
6 15 20 22 23 26 27 rings
6 2 8 9 10 11 12 rings

> <PUBCHEM_HEAVY_ATOM_COUNT>
30

> <PUBCHEM_ATOM_DEF_STEREO_COUNT>
0

> <PUBCHEM_ATOM_UDEF_STEREO_COUNT>
1

> <PUBCHEM_BOND_DEF_STEREO_COUNT>
0

> <PUBCHEM_BOND_UDEF_STEREO_COUNT>
0

> <PUBCHEM_ISOTOPIC_ATOM_COUNT>
0

> <PUBCHEM_COMPONENT_COUNT>
1

> <PUBCHEM_CACTVS_TAUTO_COUNT>
4

> <PUBCHEM_CONFORMER_ID>
017D9ACD00000001

> <PUBCHEM_MMFF94_ENERGY>
64.443

> <PUBCHEM_FEATURE_SELFOVERLAP>
66.155

> <PUBCHEM_SHAPE_FINGERPRINT>
11828532 37 17750230486598160347
12100795 323 17616251824280922625
12156800 1 11970636365834802842
12202916 173 18193246694522867570
12553582 1 18268723726916034588
12788726 201 17904492800902680690
13122387 1 18339644438662262910
13402501 40 17901664100939261713
1361 2 17620461846283831655
140371 6 18339637837520049456
14114206 34 17902521384806156692
14251757 5 17334521314623519918
14363568 33 17978258228482221050
14659021 117 17907006280225687146
14725015 67 18261094297487912331
15297060 5 15533598074768137530
19315092 285 16484687066350110117
19930381 70 18341888649590964063
20600515 1 17968938570361951732
20764821 26 18338250253702624378
21133410 32 16518824690917518642
23559900 14 18338502131959809237
25019877 29 14235111126880822645
3493558 16 15978656347840227401
445580 102 18265617756611341132
463206 1 18194681471261021292
469060 322 17770460335905687102
5309563 4 18341893051684139253
57527585 103 18116737169467212283

> <PUBCHEM_SHAPE_MULTIPOLES>
581.63
7.82
6.76
1.88
1.69
4.84
-0.52
-3.75
1.19
-4.91
0.13
1.22
-2.12
2.05

> <PUBCHEM_SHAPE_SELFOVERLAP>
1279.869

> <PUBCHEM_SHAPE_VOLUME>
314.6

> <PUBCHEM_COORDINATE_TYPE>
2
5
10

$$$$
44595812
  -OEChem-05102415123D

 49 53  0     1  0  0  0  0  0999 V2000
   -1.3083    2.7158   -0.0894 N   0  0  2  0  0  0  0  0  0  0  0  0
    2.3423    2.1204    0.4660 N   0  0  0  0  0  0  0  0  0  0  0  0
   -3.6145   -3.1631   -0.5168 N   0  0  0  0  0  0  0  0  0  0  0  0
    3.9279   -3.0841   -0.1768 N   0  0  0  0  0  0  0  0  0  0  0  0
    3.0144   -3.6017   -1.0149 N   0  0  0  0  0  0  0  0  0  0  0  0
    1.1648    2.6201   -0.2131 C   0  0  1  0  0  0  0  0  0  0  0  0
   -0.0955    2.1717    0.5388 C   0  0  0  0  0  0  0  0  0  0  0  0
    1.2325    4.1450   -0.3037 C   0  0  0  0  0  0  0  0  0  0  0  0
   -0.0648    4.7025   -0.8788 C   0  0  0  0  0  0  0  0  0  0  0  0
   -1.2815    4.1847   -0.1108 C   0  0  0  0  0  0  0  0  0  0  0  0
   -2.5036    2.2360    0.6039 C   0  0  0  0  0  0  0  0  0  0  0  0
   -2.8261    0.8101    0.2440 C   0  0  0  0  0  0  0  0  0  0  0  0
    2.7985    0.8198    0.3487 C   0  0  0  0  0  0  0  0  0  0  0  0
   -2.5290   -0.2139    1.1506 C   0  0  0  0  0  0  0  0  0  0  0  0
   -3.4153    0.5248   -0.9861 C   0  0  0  0  0  0  0  0  0  0  0  0
    2.1017   -0.0826   -0.4648 C   0  0  0  0  0  0  0  0  0  0  0  0
   -2.8333   -1.5460    0.8068 C   0  0  0  0  0  0  0  0  0  0  0  0
    3.9447    0.4250    1.0411 C   0  0  0  0  0  0  0  0  0  0  0  0
   -3.4241   -1.8023   -0.4325 C   0  0  0  0  0  0  0  0  0  0  0  0
   -3.7264   -0.7888   -1.3488 C   0  0  0  0  0  0  0  0  0  0  0  0
    2.5812   -1.3988   -0.5708 C   0  0  0  0  0  0  0  0  0  0  0  0
    3.7250   -1.7655    0.1296 C   0  0  0  0  0  0  0  0  0  0  0  0
    4.4344   -0.8817    0.9457 C   0  0  0  0  0  0  0  0  0  0  0  0
   -2.6759   -2.7997    1.4614 C   0  0  0  0  0  0  0  0  0  0  0  0
   -3.1657   -3.7743    0.6230 C   0  0  0  0  0  0  0  0  0  0  0  0
    2.1967   -2.5735   -1.2523 C   0  0  0  0  0  0  0  0  0  0  0  0
    1.1328    2.2617   -1.2505 H   0  0  0  0  0  0  0  0  0  0  0  0
   -0.1375    1.0795    0.5532 H   0  0  0  0  0  0  0  0  0  0  0  0
   -0.0313    2.4897    1.5896 H   0  0  0  0  0  0  0  0  0  0  0  0
    1.4013    4.5773    0.6915 H   0  0  0  0  0  0  0  0  0  0  0  0
    2.0814    4.4538   -0.9256 H   0  0  0  0  0  0  0  0  0  0  0  0
   -0.1485    4.4188   -1.9356 H   0  0  0  0  0  0  0  0  0  0  0  0
   -0.0437    5.7976   -0.8433 H   0  0  0  0  0  0  0  0  0  0  0  0
   -1.2746    4.5898    0.9098 H   0  0  0  0  0  0  0  0  0  0  0  0
   -2.1810    4.5678   -0.6080 H   0  0  0  0  0  0  0  0  0  0  0  0
   -2.4196    2.3593    1.6924 H   0  0  0  0  0  0  0  0  0  0  0  0
   -3.3789    2.8355    0.3156 H   0  0  0  0  0  0  0  0  0  0  0  0
    2.8196    2.7313    1.1201 H   0  0  0  0  0  0  0  0  0  0  0  0
   -2.0691    0.0077    2.1099 H   0  0  0  0  0  0  0  0  0  0  0  0
   -3.6423    1.3269   -1.6850 H   0  0  0  0  0  0  0  0  0  0  0  0
    1.2136    0.1723   -1.0293 H   0  0  0  0  0  0  0  0  0  0  0  0
    4.4779    1.1352    1.6701 H   0  0  0  0  0  0  0  0  0  0  0  0
   -4.1852   -1.0099   -2.3067 H   0  0  0  0  0  0  0  0  0  0  0  0
    5.3244   -1.1902    1.4827 H   0  0  0  0  0  0  0  0  0  0  0  0
   -2.2503   -2.9713    2.4407 H   0  0  0  0  0  0  0  0  0  0  0  0
   -4.0261   -3.6410   -1.3065 H   0  0  0  0  0  0  0  0  0  0  0  0
   -3.2342   -4.8470    0.7359 H   0  0  0  0  0  0  0  0  0  0  0  0
    1.3532   -2.7213   -1.9119 H   0  0  0  0  0  0  0  0  0  0  0  0
    4.6707   -3.6881    0.1525 H   0  0  0  0  0  0  0  0  0  0  0  0
  1  7  1  0  0  0  0
  1 10  1  0  0  0  0
  1 11  1  0  0  0  0
  2  6  1  0  0  0  0
  2 13  1  0  0  0  0
  2 38  1  0  0  0  0
  3 19  1  0  0  0  0
  3 25  1  0  0  0  0
  3 46  1  0  0  0  0
  4  5  1  0  0  0  0
  4 22  1  0  0  0  0
  4 49  1  0  0  0  0
  5 26  2  0  0  0  0
  6  7  1  0  0  0  0
  6  8  1  0  0  0  0
  6 27  1  0  0  0  0
  7 28  1  0  0  0  0
  7 29  1  0  0  0  0
  8  9  1  0  0  0  0
  8 30  1  0  0  0  0
  8 31  1  0  0  0  0
  9 10  1  0  0  0  0
  9 32  1  0  0  0  0
  9 33  1  0  0  0  0
 10 34  1  0  0  0  0
 10 35  1  0  0  0  0
 11 12  1  0  0  0  0
 11 36  1  0  0  0  0
 11 37  1  0  0  0  0
 12 14  2  0  0  0  0
 12 15  1  0  0  0  0
 13 16  2  0  0  0  0
 13 18  1  0  0  0  0
 14 17  1  0  0  0  0
 14 39  1  0  0  0  0
 15 20  2  0  0  0  0
 15 40  1  0  0  0  0
 16 21  1  0  0  0  0
 16 41  1  0  0  0  0
 17 19  2  0  0  0  0
 17 24  1  0  0  0  0
 18 23  2  0  0  0  0
 18 42  1  0  0  0  0
 19 20  1  0  0  0  0
 20 43  1  0  0  0  0
 21 22  2  0  0  0  0
 21 26  1  0  0  0  0
 22 23  1  0  0  0  0
 23 44  1  0  0  0  0
 24 25  2  0  0  0  0
 24 45  1  0  0  0  0
 25 47  1  0  0  0  0
 26 48  1  0  0  0  0
M  END
> <PUBCHEM_COMPOUND_CID>
44595812

> <PUBCHEM_CONFORMER_RMSD>
0.8

> <PUBCHEM_CONFORMER_DIVERSEORDER>
1
61
266
259
310
322
217
333
254
327
233
248
167
124
286
253
130
243
162
193
311
113
270
337
87
265
274
98
323
166
38
101
91
83
316
187
104
31
224
238
294
29
120
230
89
11
198
300
58
346
278
159
306
81
342
103
212
268
79
315
331
59
49
282
237
262
326
8
41
106
24
179
247
57
158
147
206
132
318
229
62
149
280
218
180
177
345
231
303
95
67
308
288
117
200
139
343
339
199
324
284
80
250
223
292
309
52
307
301
298
72
108
347
228
125
273
287
7
151
160
68
354
348
134
99
161
261
96
181
178
293
156
54
135
210
28
249
227
53
191
312
219
56
295
185
289
51
97
320
165
277
176
314
21
334
184
225
263
13
155
150
140
138
213
299
276
275
169
84
349
214
192
202
325
114
264
86
244
127
183
142
226
207
23
353
350
65
70
170
36
45
220
290
296
131
279
260
4
136
2
189
281
222
27
40
111
285
240
107
14
141
173
26
112
267
351
9
272
338
329
19
88
63
5
64
335
205
174
246
235
25
30
110
258
12
168
336
116
297
341
3
197
291
221
148
69
330
17
6
128
201
32
321
115
109
18
171
208
256
22
340
105
144
43
304
129
74
143
145
234
242
77
302
75
122
194
48
34
271
195
94
251
76
196
16
172
209
203
317
245
239
20
328
190
241
55
216
344
305
73
252
204
153
78
255
50
352
182
121
313
90
283
137
82
332
188
123
37
46
232
157
100
93
118
66
71
211
269
60
164
257
319
163
42
102
215
47
236
39
152
85
119
44
126
186
15
175
92
35
10
154
146
33
133

> <PUBCHEM_MMFF94_PARTIAL_CHARGES>
34
1 -0.81
10 0.27
11 0.41
12 -0.14
13 0.1
14 -0.15
15 -0.15
16 -0.15
18 -0.15
19 -0.15
2 -0.87
20 -0.15
22 -0.15
23 -0.15
24 -0.15
25 -0.3
26 0.14
3 0.03
38 0.4
39 0.15
4 0.3
40 0.15
41 0.15
42 0.15
43 0.15
44 0.15
45 0.15
46 0.27
47 0.15
48 0.15
49 0.27
5 -0.71
6 0.37
7 0.27

> <PUBCHEM_EFFECTIVE_ROTOR_COUNT>
5.2

> <PUBCHEM_PHARMACOPHORE_FEATURES>
12
1 1 cation
1 2 cation
1 2 donor
1 3 cation
1 3 donor
1 4 donor
1 5 acceptor
5 3 17 19 24 25 rings
5 4 5 21 22 26 rings
6 1 6 7 8 9 10 rings
6 12 14 15 17 19 20 rings
6 13 16 18 21 22 23 rings

> <PUBCHEM_HEAVY_ATOM_COUNT>
26

> <PUBCHEM_ATOM_DEF_STEREO_COUNT>
0

> <PUBCHEM_ATOM_UDEF_STEREO_COUNT>
1

> <PUBCHEM_BOND_DEF_STEREO_COUNT>
0

> <PUBCHEM_BOND_UDEF_STEREO_COUNT>
0

> <PUBCHEM_ISOTOPIC_ATOM_COUNT>
0

> <PUBCHEM_COMPONENT_COUNT>
1

> <PUBCHEM_CACTVS_TAUTO_COUNT>
2

> <PUBCHEM_CONFORMER_ID>
02A87A6400000001

> <PUBCHEM_MMFF94_ENERGY>
57.0255

> <PUBCHEM_FEATURE_SELFOVERLAP>
61.081

> <PUBCHEM_SHAPE_FINGERPRINT>
10940486 97 17829625967888548564
11014199 57 18410862078704621411
11285246 1 17903597892938061021
12156800 1 14361366053632564256
12553582 1 18338250309310443293
13122387 1 16321756635493596990
1361 2 16969702776812833163
138480 1 15023303694561616201
140371 6 18410285930517841629
14251757 5 17907041490236036326
14659021 117 18193262010666148714
14725015 67 17979353054258868823
15927050 60 17042883491914133517
16719943 64 17328028668149304546
17859628 97 17474113094392899385
19315092 285 16556189471619888119
19930381 70 18122344854973337219
20775530 9 18335140950709440371
21133410 52 17693359446136764486
21133410 62 16175641027730093838
23559900 14 18193264415800445977
23572383 38 18266436828323183530
3027735 51 17690273816517954453
3493558 16 9287694777171856473
4280585 95 18262220193105354832
445580 102 18049162460286908835
463206 1 18409451366620955816
469060 322 17625778942480739518
5265222 85 17328331060038168972
5309563 4 18123192569732184931
550186 72 18408885132047110628
613672 6 18337936969971129755
9709674 26 18341328881986398922

> <PUBCHEM_SHAPE_MULTIPOLES>
510.16
8.45
6.63
1.19
1.2
4.03
-0.01
-8.22
0.53
0.19
-1.11
-0.33
-0.51
1

> <PUBCHEM_SHAPE_SELFOVERLAP>
1132.191

> <PUBCHEM_SHAPE_VOLUME>
273.5

> <PUBCHEM_COORDINATE_TYPE>
2
5
10

$$$$
25008844
  -OEChem-05102415123D

 56 60  0     1  0  0  0  0  0999 V2000
   -0.4660   -2.3022    1.4166 O   0  0  0  0  0  0  0  0  0  0  0  0
   -0.3404    3.2506   -0.0092 N   0  0  2  0  0  0  0  0  0  0  0  0
    2.9712    1.6174    0.5875 N   0  0  0  0  0  0  0  0  0  0  0  0
   -3.2077   -1.7259    0.8014 N   0  0  0  0  0  0  0  0  0  0  0  0
    3.1428   -3.7168   -0.6500 N   0  0  0  0  0  0  0  0  0  0  0  0
    2.1806   -3.8676   -1.5753 N   0  0  0  0  0  0  0  0  0  0  0  0
    2.0186    2.4936   -0.0622 C   0  0  1  0  0  0  0  0  0  0  0  0
    0.6375    2.3279    0.5857 C   0  0  0  0  0  0  0  0  0  0  0  0
    2.4994    3.9415    0.0409 C   0  0  0  0  0  0  0  0  0  0  0  0
    1.4403    4.8944   -0.5024 C   0  0  0  0  0  0  0  0  0  0  0  0
    0.0815    4.6485    0.1543 C   0  0  0  0  0  0  0  0  0  0  0  0
   -1.6637    3.0435    0.5789 C   0  0  0  0  0  0  0  0  0  0  0  0
   -2.3333    1.8104    0.0332 C   0  0  0  0  0  0  0  0  0  0  0  0
    3.0679    0.2630    0.3235 C   0  0  0  0  0  0  0  0  0  0  0  0
   -2.3814    0.6530    0.8155 C   0  0  0  0  0  0  0  0  0  0  0  0
   -3.0132   -0.4706    0.2706 C   0  0  0  0  0  0  0  0  0  0  0  0
   -2.8947    1.8397   -1.2418 C   0  0  0  0  0  0  0  0  0  0  0  0
   -3.5846   -0.4701   -1.0038 C   0  0  0  0  0  0  0  0  0  0  0  0
   -3.5232    0.7080   -1.7741 C   0  0  0  0  0  0  0  0  0  0  0  0
    2.2093   -0.3175   -0.6187 C   0  0  0  0  0  0  0  0  0  0  0  0
    4.0191   -0.5050    0.9975 C   0  0  0  0  0  0  0  0  0  0  0  0
   -4.1290   -1.7674   -1.2177 C   0  0  0  0  0  0  0  0  0  0  0  0
   -3.8810   -2.5167   -0.0907 C   0  0  0  0  0  0  0  0  0  0  0  0
   -2.7707   -2.1625    2.1101 C   0  0  0  0  0  0  0  0  0  0  0  0
    2.3249   -1.6944   -0.8731 C   0  0  0  0  0  0  0  0  0  0  0  0
    3.2808   -2.4358   -0.1876 C   0  0  0  0  0  0  0  0  0  0  0  0
    4.1462   -1.8767    0.7552 C   0  0  0  0  0  0  0  0  0  0  0  0
   -1.5163   -3.0269    2.0440 C   0  0  0  0  0  0  0  0  0  0  0  0
    1.6852   -2.6353   -1.7083 C   0  0  0  0  0  0  0  0  0  0  0  0
    1.9598    2.2754   -1.1368 H   0  0  0  0  0  0  0  0  0  0  0  0
    0.3027    1.2946    0.4621 H   0  0  0  0  0  0  0  0  0  0  0  0
    0.7154    2.4969    1.6696 H   0  0  0  0  0  0  0  0  0  0  0  0
    2.7122    4.1972    1.0874 H   0  0  0  0  0  0  0  0  0  0  0  0
    3.4390    4.0725   -0.5092 H   0  0  0  0  0  0  0  0  0  0  0  0
    1.3533    4.7641   -1.5886 H   0  0  0  0  0  0  0  0  0  0  0  0
    1.7526    5.9305   -0.3294 H   0  0  0  0  0  0  0  0  0  0  0  0
   -0.6472    5.3168   -0.3205 H   0  0  0  0  0  0  0  0  0  0  0  0
    0.1297    4.9199    1.2172 H   0  0  0  0  0  0  0  0  0  0  0  0
   -1.6213    3.0173    1.6765 H   0  0  0  0  0  0  0  0  0  0  0  0
   -2.3245    3.8887    0.3392 H   0  0  0  0  0  0  0  0  0  0  0  0
    3.5503    1.9966    1.3287 H   0  0  0  0  0  0  0  0  0  0  0  0
   -1.9388    0.6320    1.8057 H   0  0  0  0  0  0  0  0  0  0  0  0
   -2.8512    2.7455   -1.8422 H   0  0  0  0  0  0  0  0  0  0  0  0
   -3.9567    0.7447   -2.7695 H   0  0  0  0  0  0  0  0  0  0  0  0
    1.4604    0.2320   -1.1749 H   0  0  0  0  0  0  0  0  0  0  0  0
    4.6811   -0.0427    1.7271 H   0  0  0  0  0  0  0  0  0  0  0  0
   -4.6460   -2.1165   -2.1011 H   0  0  0  0  0  0  0  0  0  0  0  0
   -4.1291   -3.5429    0.1454 H   0  0  0  0  0  0  0  0  0  0  0  0
   -2.5963   -1.2812    2.7339 H   0  0  0  0  0  0  0  0  0  0  0  0
   -3.5962   -2.7238    2.5626 H   0  0  0  0  0  0  0  0  0  0  0  0
    4.8843   -2.4749    1.2776 H   0  0  0  0  0  0  0  0  0  0  0  0
   -1.1963   -3.3062    3.0525 H   0  0  0  0  0  0  0  0  0  0  0  0
   -1.6959   -3.9395    1.4662 H   0  0  0  0  0  0  0  0  0  0  0  0
    0.8771   -2.4722   -2.4074 H   0  0  0  0  0  0  0  0  0  0  0  0
    3.6737   -4.5338   -0.3752 H   0  0  0  0  0  0  0  0  0  0  0  0
    0.3120   -2.8851    1.3985 H   0  0  0  0  0  0  0  0  0  0  0  0
  1 28  1  0  0  0  0
  1 56  1  0  0  0  0
  2  8  1  0  0  0  0
  2 11  1  0  0  0  0
  2 12  1  0  0  0  0
  3  7  1  0  0  0  0
  3 14  1  0  0  0  0
  3 41  1  0  0  0  0
  4 16  1  0  0  0  0
  4 23  1  0  0  0  0
  4 24  1  0  0  0  0
  5  6  1  0  0  0  0
  5 26  1  0  0  0  0
  5 55  1  0  0  0  0
  6 29  2  0  0  0  0
  7  8  1  0  0  0  0
  7  9  1  0  0  0  0
  7 30  1  0  0  0  0
  8 31  1  0  0  0  0
  8 32  1  0  0  0  0
  9 10  1  0  0  0  0
  9 33  1  0  0  0  0
  9 34  1  0  0  0  0
 10 11  1  0  0  0  0
 10 35  1  0  0  0  0
 10 36  1  0  0  0  0
 11 37  1  0  0  0  0
 11 38  1  0  0  0  0
 12 13  1  0  0  0  0
 12 39  1  0  0  0  0
 12 40  1  0  0  0  0
 13 15  2  0  0  0  0
 13 17  1  0  0  0  0
 14 20  2  0  0  0  0
 14 21  1  0  0  0  0
 15 16  1  0  0  0  0
 15 42  1  0  0  0  0
 16 18  2  0  0  0  0
 17 19  2  0  0  0  0
 17 43  1  0  0  0  0
 18 19  1  0  0  0  0
 18 22  1  0  0  0  0
 19 44  1  0  0  0  0
 20 25  1  0  0  0  0
 20 45  1  0  0  0  0
 21 27  2  0  0  0  0
 21 46  1  0  0  0  0
 22 23  2  0  0  0  0
 22 47  1  0  0  0  0
 23 48  1  0  0  0  0
 24 28  1  0  0  0  0
 24 49  1  0  0  0  0
 24 50  1  0  0  0  0
 25 26  2  0  0  0  0
 25 29  1  0  0  0  0
 26 27  1  0  0  0  0
 27 51  1  0  0  0  0
 28 52  1  0  0  0  0
 28 53  1  0  0  0  0
 29 54  1  0  0  0  0
M  END
> <PUBCHEM_COMPOUND_CID>
25008844

> <PUBCHEM_CONFORMER_RMSD>
1.2

> <PUBCHEM_CONFORMER_DIVERSEORDER>
1
21
66
86
146
52
22
152
80
47
27
139
119
81
106
99
29
82
104
123
125
85
129
20
165
62
155
69
18
71
118
48
160
23
103
113
96
101
79
15
19
92
161
42
105
163
157
93
39
64
77
130
159
107
6
25
137
83
95
145
151
112
98
34
37
108
166
135
76
45
4
132
89
78
126
149
35
2
141
138
16
91
134
111
144
13
44
30
46
26
55
164
28
87
100
58
17
162
156
7
143
54
38
74
114
75
148
63
133
136
68
88
24
97
158
84
70
11
94
36
117
65
67
120
73
61
154
56
128
10
40
122
31
51
142
3
12
41
49
147
53
109
153
150
14
9
43
124
57
121
60
90
5
50
59
32
110
127
33
102
115
72
116
140
131
8

> <PUBCHEM_MMFF94_PARTIAL_CHARGES>
37
1 -0.68
11 0.27
12 0.41
13 -0.14
14 0.1
15 -0.15
16 -0.15
17 -0.15
19 -0.15
2 -0.81
20 -0.15
21 -0.15
22 -0.15
23 -0.3
24 0.26
26 -0.15
27 -0.15
28 0.28
29 0.14
3 -0.87
4 0.05
41 0.4
42 0.15
43 0.15
44 0.15
45 0.15
46 0.15
47 0.15
48 0.15
5 0.3
51 0.15
54 0.15
55 0.27
56 0.4
6 -0.71
7 0.37
8 0.27

> <PUBCHEM_EFFECTIVE_ROTOR_COUNT>
7.2

> <PUBCHEM_PHARMACOPHORE_FEATURES>
13
1 1 acceptor
1 1 donor
1 2 cation
1 3 cation
1 3 donor
1 4 cation
1 5 donor
1 6 acceptor
5 4 16 18 22 23 rings
5 5 6 25 26 29 rings
6 13 15 16 17 18 19 rings
6 14 20 21 25 26 27 rings
6 2 7 8 9 10 11 rings

> <PUBCHEM_HEAVY_ATOM_COUNT>
29

> <PUBCHEM_ATOM_DEF_STEREO_COUNT>
0

> <PUBCHEM_ATOM_UDEF_STEREO_COUNT>
1

> <PUBCHEM_BOND_DEF_STEREO_COUNT>
0

> <PUBCHEM_BOND_UDEF_STEREO_COUNT>
0

> <PUBCHEM_ISOTOPIC_ATOM_COUNT>
0

> <PUBCHEM_COMPONENT_COUNT>
1

> <PUBCHEM_CACTVS_TAUTO_COUNT>
2

> <PUBCHEM_CONFORMER_ID>
017D9ACC00000001

> <PUBCHEM_MMFF94_ENERGY>
59.9813

> <PUBCHEM_FEATURE_SELFOVERLAP>
66.155

> <PUBCHEM_SHAPE_FINGERPRINT>
11828532 37 17605552361432744619
12100795 323 17543913863410063931
12156800 1 14440191145997152643
12202916 173 18193246690170020858
12553582 1 18339656533385555772
12788726 201 17975700480947313954
13122387 1 18412265008333842678
13402501 40 17829325031966671721
1361 2 17547842414710188975
13617811 41 8683341391358773542
140371 6 18339073800844930712
14114206 34 17974578987397206398
14251757 5 17477229144969408790
14363568 33 17977412712582949146
14659021 117 17978218362680396562
14725015 67 18261376876308323227
16719943 64 16681764260451931598
19315092 285 16556464297871089117
19930381 70 18341046440863989167
20764821 26 18337404737808679266
20775530 9 18407762529629710941
23559900 14 18337940294471404873
3493558 16 15906600944240719851
4280585 95 18262783074523948160
445580 102 18264774444061940494
463206 1 18266457607512618272
469060 322 17769614820164592606
5265222 85 16754968675767450804
5309563 4 18340769368001435797
57527585 103 18116172029170160307
613672 6 18267567049067378828
9709674 26 18262230153002502137

> <PUBCHEM_SHAPE_MULTIPOLES>
566.03
8.02
6.8
1.6
1.92
4.47
-0.14
-4.67
0.53
-4.72
0.51
1.05
-1.45
1.64

> <PUBCHEM_SHAPE_SELFOVERLAP>
1241.651

> <PUBCHEM_SHAPE_VOLUME>
307.8

> <PUBCHEM_COORDINATE_TYPE>
2
5
10

$$$$
25010259
  -OEChem-05102415123D

 53 56  0     1  0  0  0  0  0999 V2000
   -2.7723   -3.9874   -1.5242 Cl  0  0  0  0  0  0  0  0  0  0  0  0
   -0.0445   -2.9799    1.4419 S   0  0  0  0  0  0  0  0  0  0  0  0
    0.3419   -1.5812    1.4357 O   0  0  0  0  0  0  0  0  0  0  0  0
    0.3772   -3.8560    2.5168 O   0  0  0  0  0  0  0  0  0  0  0  0
   -2.1718    2.5106    0.0026 N   0  0  2  0  0  0  0  0  0  0  0  0
    1.5044    2.9497    0.5347 N   0  0  0  0  0  0  0  0  0  0  0  0
   -1.7458   -3.0722    1.2017 N   0  0  0  0  0  0  0  0  0  0  0  0
    4.5301   -1.4521   -0.6835 N   0  0  0  0  0  0  0  0  0  0  0  0
    3.7903   -2.1160   -1.5872 N   0  0  0  0  0  0  0  0  0  0  0  0
    0.2183    3.1571   -0.0981 C   0  0  1  0  0  0  0  0  0  0  0  0
   -0.8400    2.2770    0.5802 C   0  0  0  0  0  0  0  0  0  0  0  0
   -0.1641    4.6351   -0.0115 C   0  0  0  0  0  0  0  0  0  0  0  0
   -1.5795    4.8506   -0.5359 C   0  0  0  0  0  0  0  0  0  0  0  0
   -2.5755    3.9155    0.1510 C   0  0  0  0  0  0  0  0  0  0  0  0
   -3.1601    1.6263    0.6200 C   0  0  0  0  0  0  0  0  0  0  0  0
   -3.0598    0.2192    0.0941 C   0  0  0  0  0  0  0  0  0  0  0  0
    2.3180    1.8616    0.2744 C   0  0  0  0  0  0  0  0  0  0  0  0
   -2.4604   -0.7739    0.8689 C   0  0  0  0  0  0  0  0  0  0  0  0
    1.8986    0.8933   -0.6465 C   0  0  0  0  0  0  0  0  0  0  0  0
   -3.5645   -0.0909   -1.1687 C   0  0  0  0  0  0  0  0  0  0  0  0
    3.5445    1.7447    0.9310 C   0  0  0  0  0  0  0  0  0  0  0  0
    2.7403   -0.2031   -0.8975 C   0  0  0  0  0  0  0  0  0  0  0  0
   -2.3658   -2.0772    0.3810 C   0  0  0  0  0  0  0  0  0  0  0  0
    3.9564   -0.2951   -0.2297 C   0  0  0  0  0  0  0  0  0  0  0  0
    4.3934    0.6591    0.6918 C   0  0  0  0  0  0  0  0  0  0  0  0
   -3.4698   -1.3942   -1.6567 C   0  0  0  0  0  0  0  0  0  0  0  0
   -2.8704   -2.3873   -0.8820 C   0  0  0  0  0  0  0  0  0  0  0  0
    2.7022   -1.3532   -1.7147 C   0  0  0  0  0  0  0  0  0  0  0  0
    0.5283   -3.6802   -0.0897 C   0  0  0  0  0  0  0  0  0  0  0  0
    0.2708    2.9256   -1.1701 H   0  0  0  0  0  0  0  0  0  0  0  0
   -0.5613    1.2262    0.4676 H   0  0  0  0  0  0  0  0  0  0  0  0
   -0.8493    2.4773    1.6615 H   0  0  0  0  0  0  0  0  0  0  0  0
   -0.1082    4.9814    1.0291 H   0  0  0  0  0  0  0  0  0  0  0  0
    0.5443    5.2475   -0.5822 H   0  0  0  0  0  0  0  0  0  0  0  0
   -1.5988    4.6773   -1.6194 H   0  0  0  0  0  0  0  0  0  0  0  0
   -1.8784    5.8924   -0.3741 H   0  0  0  0  0  0  0  0  0  0  0  0
   -3.5580    4.0728   -0.3108 H   0  0  0  0  0  0  0  0  0  0  0  0
   -2.6659    4.1857    1.2115 H   0  0  0  0  0  0  0  0  0  0  0  0
   -3.0931    1.6437    1.7164 H   0  0  0  0  0  0  0  0  0  0  0  0
   -4.1779    1.9720    0.3901 H   0  0  0  0  0  0  0  0  0  0  0  0
    1.7956    3.5941    1.2617 H   0  0  0  0  0  0  0  0  0  0  0  0
   -2.0849   -0.5308    1.8603 H   0  0  0  0  0  0  0  0  0  0  0  0
    0.9623    0.9385   -1.1886 H   0  0  0  0  0  0  0  0  0  0  0  0
   -4.0330    0.6743   -1.7820 H   0  0  0  0  0  0  0  0  0  0  0  0
    3.8599    2.5037    1.6442 H   0  0  0  0  0  0  0  0  0  0  0  0
    5.3462    0.5664    1.2008 H   0  0  0  0  0  0  0  0  0  0  0  0
   -3.8674   -1.6193   -2.6431 H   0  0  0  0  0  0  0  0  0  0  0  0
   -2.1137   -4.0207    1.0473 H   0  0  0  0  0  0  0  0  0  0  0  0
    1.9260   -1.6648   -2.3992 H   0  0  0  0  0  0  0  0  0  0  0  0
    5.4243   -1.8449   -0.4167 H   0  0  0  0  0  0  0  0  0  0  0  0
    0.2176   -3.0460   -0.9203 H   0  0  0  0  0  0  0  0  0  0  0  0
    0.1269   -4.6904   -0.1887 H   0  0  0  0  0  0  0  0  0  0  0  0
    1.6184   -3.7272   -0.0460 H   0  0  0  0  0  0  0  0  0  0  0  0
  1 27  1  0  0  0  0
  2  3  2  0  0  0  0
  2  4  2  0  0  0  0
  2  7  1  0  0  0  0
  2 29  1  0  0  0  0
  5 11  1  0  0  0  0
  5 14  1  0  0  0  0
  5 15  1  0  0  0  0
  6 10  1  0  0  0  0
  6 17  1  0  0  0  0
  6 41  1  0  0  0  0
  7 23  1  0  0  0  0
  7 48  1  0  0  0  0
  8  9  1  0  0  0  0
  8 24  1  0  0  0  0
  8 50  1  0  0  0  0
  9 28  2  0  0  0  0
 10 11  1  0  0  0  0
 10 12  1  0  0  0  0
 10 30  1  0  0  0  0
 11 31  1  0  0  0  0
 11 32  1  0  0  0  0
 12 13  1  0  0  0  0
 12 33  1  0  0  0  0
 12 34  1  0  0  0  0
 13 14  1  0  0  0  0
 13 35  1  0  0  0  0
 13 36  1  0  0  0  0
 14 37  1  0  0  0  0
 14 38  1  0  0  0  0
 15 16  1  0  0  0  0
 15 39  1  0  0  0  0
 15 40  1  0  0  0  0
 16 18  2  0  0  0  0
 16 20  1  0  0  0  0
 17 19  2  0  0  0  0
 17 21  1  0  0  0  0
 18 23  1  0  0  0  0
 18 42  1  0  0  0  0
 19 22  1  0  0  0  0
 19 43  1  0  0  0  0
 20 26  2  0  0  0  0
 20 44  1  0  0  0  0
 21 25  2  0  0  0  0
 21 45  1  0  0  0  0
 22 24  2  0  0  0  0
 22 28  1  0  0  0  0
 23 27  2  0  0  0  0
 24 25  1  0  0  0  0
 25 46  1  0  0  0  0
 26 27  1  0  0  0  0
 26 47  1  0  0  0  0
 28 49  1  0  0  0  0
 29 51  1  0  0  0  0
 29 52  1  0  0  0  0
 29 53  1  0  0  0  0
M  END
> <PUBCHEM_COMPOUND_CID>
25010259

> <PUBCHEM_CONFORMER_RMSD>
1.2

> <PUBCHEM_CONFORMER_DIVERSEORDER>
1
158
66
88
207
166
159
61
169
203
33
149
120
218
200
145
87
187
173
42
213
219
123
190
101
217
75
29
107
155
4
13
206
162
133
92
208
198
63
111
32
116
58
143
76
179
172
110
80
52
147
93
215
16
54
71
163
150
2
83
60
55
138
100
151
68
25
96
23
17
209
220
216
142
85
180
11
20
134
95
98
56
34
214
195
43
9
67
152
109
5
144
102
182
118
211
168
26
47
18
127
69
205
46
117
84
126
10
90
156
15
129
184
175
112
148
135
22
154
132
38
103
64
130
188
161
185
167
141
59
44
8
115
97
192
53
108
57
128
31
210
189
146
221
122
131
78
62
82
183
193
65
28
40
94
124
114
165
174
113
177
3
79
171
45
197
41
27
186
164
36
119
121
204
70
51
6
125
157
21
191
49
212
105
35
73
196
24
170
12
91
201
194
14
160
72
199
181
137
39
136
202
99
81
74
153
86
140
19
37
176
178
30
89
104
139
50
77
106
48
7

> <PUBCHEM_MMFF94_PARTIAL_CHARGES>
36
1 -0.18
10 0.37
11 0.27
14 0.27
15 0.41
16 -0.14
17 0.1
18 -0.15
19 -0.15
2 1.33
20 -0.15
21 -0.15
23 0.2
24 -0.15
25 -0.15
26 -0.15
27 0.18
28 0.14
29 0.11
3 -0.65
4 -0.65
41 0.4
42 0.15
43 0.15
44 0.15
45 0.15
46 0.15
47 0.15
48 0.42
49 0.15
5 -0.81
50 0.27
6 -0.87
7 -0.76
8 0.3
9 -0.71

> <PUBCHEM_EFFECTIVE_ROTOR_COUNT>
7.2

> <PUBCHEM_PHARMACOPHORE_FEATURES>
12
1 3 acceptor
1 4 acceptor
1 5 cation
1 6 cation
1 6 donor
1 7 donor
1 8 donor
1 9 acceptor
5 8 9 22 24 28 rings
6 16 18 20 23 26 27 rings
6 17 19 21 22 24 25 rings
6 5 10 11 12 13 14 rings

> <PUBCHEM_HEAVY_ATOM_COUNT>
29

> <PUBCHEM_ATOM_DEF_STEREO_COUNT>
0

> <PUBCHEM_ATOM_UDEF_STEREO_COUNT>
1

> <PUBCHEM_BOND_DEF_STEREO_COUNT>
0

> <PUBCHEM_BOND_UDEF_STEREO_COUNT>
0

> <PUBCHEM_ISOTOPIC_ATOM_COUNT>
0

> <PUBCHEM_COMPONENT_COUNT>
1

> <PUBCHEM_CACTVS_TAUTO_COUNT>
2

> <PUBCHEM_CONFORMER_ID>
017DA05300000001

> <PUBCHEM_MMFF94_ENERGY>
70.6325

> <PUBCHEM_FEATURE_SELFOVERLAP>
61.005

> <PUBCHEM_SHAPE_FINGERPRINT>
11828532 37 17103108648504123955
12156800 1 16406974512159182541
12202916 173 18051385647160291522
12553582 1 18194135237193695957
12788726 201 18408606942123327280
13122387 1 18410295821668404770
1361 2 16252493592487728079
140371 6 18122062275900193033
14114206 34 18334581230508135892
14251757 5 18124342444293946804
14363568 33 16966638411919678648
14659021 117 18411973659686208888
14725015 67 18410285926027052835
15297060 5 16760556389079986066
19930381 70 17837769298332472303
20600515 1 17896590872694945788
20764821 26 18193286397263530374
23559900 14 17618210050511808337
238 59 17043721886334550709
3298306 158 17616820929118307669
338550 245 17612603224305025614
474144 1 16746228657379602026
5265222 85 17761805899917166900
5309563 4 17764592418578821351
57091435 65 17543077779353919779
57527585 103 17899429854367343403
9709674 26 18343021090585253220

> <PUBCHEM_SHAPE_MULTIPOLES>
565.88
7.49
7.01
1.58
1.71
5.95
0.18
-4.55
-1.75
-0.13
0.13
-0.59
-1.77
0.91

> <PUBCHEM_SHAPE_SELFOVERLAP>
1196.433

> <PUBCHEM_SHAPE_VOLUME>
320.1

> <PUBCHEM_COORDINATE_TYPE>
2
5
10

$$$$
25008674
  -OEChem-05102415123D

 58 62  0     1  0  0  0  0  0999 V2000
   -1.4588   -3.4447    1.6983 O   0  0  0  0  0  0  0  0  0  0  0  0
   -0.0456    3.2726    0.0128 N   0  0  2  0  0  0  0  0  0  0  0  0
    3.1175    1.3779    0.6417 N   0  0  0  0  0  0  0  0  0  0  0  0
   -3.2762   -1.4845    0.7321 N   0  0  2  0  0  0  0  0  0  0  0  0
    2.9093   -3.9271   -0.7104 N   0  0  0  0  0  0  0  0  0  0  0  0
    1.9594   -3.9845   -1.6587 N   0  0  0  0  0  0  0  0  0  0  0  0
    2.2493    2.3379   -0.0080 C   0  0  1  0  0  0  0  0  0  0  0  0
    0.8454    2.2654    0.6072 C   0  0  0  0  0  0  0  0  0  0  0  0
    2.8368    3.7422    0.1374 C   0  0  0  0  0  0  0  0  0  0  0  0
    0.4779    4.6303    0.2161 C   0  0  0  0  0  0  0  0  0  0  0  0
    1.8660    4.7846   -0.4065 C   0  0  0  0  0  0  0  0  0  0  0  0
   -1.3937    3.1556    0.5684 C   0  0  0  0  0  0  0  0  0  0  0  0
   -2.1430    1.9889   -0.0184 C   0  0  0  0  0  0  0  0  0  0  0  0
   -3.0054   -0.2400    0.1812 C   0  0  0  0  0  0  0  0  0  0  0  0
   -3.5339   -0.1253   -1.1110 C   0  0  0  0  0  0  0  0  0  0  0  0
   -4.2083   -1.4049   -1.4881 C   0  0  0  0  0  0  0  0  0  0  0  0
   -4.2727   -2.1235   -0.1250 C   0  0  0  0  0  0  0  0  0  0  0  0
   -2.3040    0.8205    0.7337 C   0  0  0  0  0  0  0  0  0  0  0  0
   -2.6753    2.0880   -1.3123 C   0  0  0  0  0  0  0  0  0  0  0  0
   -3.3760    1.0206   -1.8720 C   0  0  0  0  0  0  0  0  0  0  0  0
   -3.1480   -1.7935    2.1335 C   0  0  0  0  0  0  0  0  0  0  0  0
    3.1164    0.0258    0.3497 C   0  0  0  0  0  0  0  0  0  0  0  0
   -1.7341   -2.2603    2.4355 C   0  0  0  0  0  0  0  0  0  0  0  0
    2.2375   -0.4675   -0.6228 C   0  0  0  0  0  0  0  0  0  0  0  0
    3.9909   -0.8267    1.0261 C   0  0  0  0  0  0  0  0  0  0  0  0
    2.2533   -1.8436   -0.9053 C   0  0  0  0  0  0  0  0  0  0  0  0
    4.0184   -2.1988    0.7560 C   0  0  0  0  0  0  0  0  0  0  0  0
    3.1342   -2.6702   -0.2168 C   0  0  0  0  0  0  0  0  0  0  0  0
    1.5626   -2.7152   -1.7744 C   0  0  0  0  0  0  0  0  0  0  0  0
    2.1983    2.1471   -1.0881 H   0  0  0  0  0  0  0  0  0  0  0  0
    0.4353    1.2637    0.4539 H   0  0  0  0  0  0  0  0  0  0  0  0
    0.9117    2.4056    1.6960 H   0  0  0  0  0  0  0  0  0  0  0  0
    3.0449    3.9592    1.1935 H   0  0  0  0  0  0  0  0  0  0  0  0
    3.7958    3.8120   -0.3899 H   0  0  0  0  0  0  0  0  0  0  0  0
    0.5228    4.8751    1.2856 H   0  0  0  0  0  0  0  0  0  0  0  0
   -0.1869    5.3622   -0.2588 H   0  0  0  0  0  0  0  0  0  0  0  0
    1.7937    4.6838   -1.4969 H   0  0  0  0  0  0  0  0  0  0  0  0
    2.2524    5.7899   -0.2040 H   0  0  0  0  0  0  0  0  0  0  0  0
   -1.9828    4.0534    0.3335 H   0  0  0  0  0  0  0  0  0  0  0  0
   -1.3783    3.1033    1.6658 H   0  0  0  0  0  0  0  0  0  0  0  0
    3.7069    1.6963    1.4032 H   0  0  0  0  0  0  0  0  0  0  0  0
   -3.5863   -1.9631   -2.1957 H   0  0  0  0  0  0  0  0  0  0  0  0
   -5.2065   -1.2510   -1.9072 H   0  0  0  0  0  0  0  0  0  0  0  0
   -4.0856   -3.1973   -0.2315 H   0  0  0  0  0  0  0  0  0  0  0  0
   -5.2714   -1.9961    0.3130 H   0  0  0  0  0  0  0  0  0  0  0  0
   -1.8865    0.7526    1.7335 H   0  0  0  0  0  0  0  0  0  0  0  0
   -2.5441    2.9979   -1.8928 H   0  0  0  0  0  0  0  0  0  0  0  0
   -3.7823    1.0901   -2.8750 H   0  0  0  0  0  0  0  0  0  0  0  0
   -3.4184   -0.9359    2.7602 H   0  0  0  0  0  0  0  0  0  0  0  0
   -3.8428   -2.6039    2.3872 H   0  0  0  0  0  0  0  0  0  0  0  0
   -0.9882   -1.5064    2.1658 H   0  0  0  0  0  0  0  0  0  0  0  0
   -1.6327   -2.4874    3.5013 H   0  0  0  0  0  0  0  0  0  0  0  0
    1.5456    0.1494   -1.1822 H   0  0  0  0  0  0  0  0  0  0  0  0
    4.6696   -0.4317    1.7795 H   0  0  0  0  0  0  0  0  0  0  0  0
    4.6969   -2.8626    1.2802 H   0  0  0  0  0  0  0  0  0  0  0  0
    0.7855   -2.4761   -2.4867 H   0  0  0  0  0  0  0  0  0  0  0  0
   -0.5497   -3.7120    1.9170 H   0  0  0  0  0  0  0  0  0  0  0  0
    3.3701   -4.7879   -0.4429 H   0  0  0  0  0  0  0  0  0  0  0  0
  1 23  1  0  0  0  0
  1 57  1  0  0  0  0
  2  8  1  0  0  0  0
  2 10  1  0  0  0  0
  2 12  1  0  0  0  0
  3  7  1  0  0  0  0
  3 22  1  0  0  0  0
  3 41  1  0  0  0  0
  4 14  1  0  0  0  0
  4 17  1  0  0  0  0
  4 21  1  0  0  0  0
  5  6  1  0  0  0  0
  5 28  1  0  0  0  0
  5 58  1  0  0  0  0
  6 29  2  0  0  0  0
  7  8  1  0  0  0  0
  7  9  1  0  0  0  0
  7 30  1  0  0  0  0
  8 31  1  0  0  0  0
  8 32  1  0  0  0  0
  9 11  1  0  0  0  0
  9 33  1  0  0  0  0
  9 34  1  0  0  0  0
 10 11  1  0  0  0  0
 10 35  1  0  0  0  0
 10 36  1  0  0  0  0
 11 37  1  0  0  0  0
 11 38  1  0  0  0  0
 12 13  1  0  0  0  0
 12 39  1  0  0  0  0
 12 40  1  0  0  0  0
 13 18  2  0  0  0  0
 13 19  1  0  0  0  0
 14 15  2  0  0  0  0
 14 18  1  0  0  0  0
 15 16  1  0  0  0  0
 15 20  1  0  0  0  0
 16 17  1  0  0  0  0
 16 42  1  0  0  0  0
 16 43  1  0  0  0  0
 17 44  1  0  0  0  0
 17 45  1  0  0  0  0
 18 46  1  0  0  0  0
 19 20  2  0  0  0  0
 19 47  1  0  0  0  0
 20 48  1  0  0  0  0
 21 23  1  0  0  0  0
 21 49  1  0  0  0  0
 21 50  1  0  0  0  0
 22 24  2  0  0  0  0
 22 25  1  0  0  0  0
 23 51  1  0  0  0  0
 23 52  1  0  0  0  0
 24 26  1  0  0  0  0
 24 53  1  0  0  0  0
 25 27  2  0  0  0  0
 25 54  1  0  0  0  0
 26 28  2  0  0  0  0
 26 29  1  0  0  0  0
 27 28  1  0  0  0  0
 27 55  1  0  0  0  0
 29 56  1  0  0  0  0
M  END
> <PUBCHEM_COMPOUND_CID>
25008674

> <PUBCHEM_CONFORMER_RMSD>
1

> <PUBCHEM_CONFORMER_DIVERSEORDER>
1
9
63
303
140
136
269
146
250
126
62
308
138
193
230
198
182
284
273
329
248
228
71
307
219
54
246
181
145
190
47
285
254
29
321
299
207
287
85
155
251
239
41
142
94
148
104
300
118
122
61
179
187
2
235
69
82
217
262
178
120
57
50
328
247
282
288
92
310
253
211
316
320
206
161
241
213
52
80
103
30
88
13
233
110
286
295
75
141
51
191
58
150
33
111
267
37
66
31
114
249
168
309
56
171
298
55
272
109
99
256
133
153
89
112
26
234
319
189
325
130
265
68
67
101
70
220
240
212
15
331
131
294
157
87
77
116
313
108
4
306
169
231
327
23
183
222
11
45
59
10
242
27
260
275
274
280
314
42
144
3
159
81
139
64
197
39
290
209
296
326
176
208
149
238
97
236
278
259
237
195
227
226
172
115
279
173
16
79
137
86
252
270
165
180
330
152
166
22
276
160
312
74
311
156
293
333
90
132
105
84
199
107
232
315
128
106
25
21
135
196
17
283
162
221
151
268
175
194
49
324
202
245
266
40
301
6
19
65
214
302
36
158
304
119
170
32
263
124
224
100
143
204
186
271
225
264
216
102
332
210
243
91
20
43
95
255
244
200
188
177
185
38
289
8
281
163
127
203
205
83
5
291
44
113
258
46
7
174
24
134
167
60
215
98
78
334
14
323
305
322
277
318
117
192
201
48
72
35
229
129
96
184
53
218
223
147
76
121
12
125
93
261
28
297
317
292
154
123
257
18
73
164
34

> <PUBCHEM_MMFF94_PARTIAL_CHARGES>
36
1 -0.68
10 0.27
12 0.41
13 -0.14
14 0.1
15 -0.14
16 0.14
17 0.37
18 -0.15
19 -0.15
2 -0.81
20 -0.15
21 0.37
22 0.1
23 0.28
24 -0.15
25 -0.15
27 -0.15
28 -0.15
29 0.14
3 -0.87
4 -0.84
41 0.4
46 0.15
47 0.15
48 0.15
5 0.3
53 0.15
54 0.15
55 0.15
56 0.15
57 0.4
58 0.27
6 -0.71
7 0.37
8 0.27

> <PUBCHEM_EFFECTIVE_ROTOR_COUNT>
7.8

> <PUBCHEM_PHARMACOPHORE_FEATURES>
13
1 1 acceptor
1 1 donor
1 2 cation
1 3 cation
1 3 donor
1 4 cation
1 5 donor
1 6 acceptor
5 4 14 15 16 17 rings
5 5 6 26 28 29 rings
6 13 14 15 18 19 20 rings
6 2 7 8 9 10 11 rings
6 22 24 25 26 27 28 rings

> <PUBCHEM_HEAVY_ATOM_COUNT>
29

> <PUBCHEM_ATOM_DEF_STEREO_COUNT>
0

> <PUBCHEM_ATOM_UDEF_STEREO_COUNT>
1

> <PUBCHEM_BOND_DEF_STEREO_COUNT>
0

> <PUBCHEM_BOND_UDEF_STEREO_COUNT>
0

> <PUBCHEM_ISOTOPIC_ATOM_COUNT>
0

> <PUBCHEM_COMPONENT_COUNT>
1

> <PUBCHEM_CACTVS_TAUTO_COUNT>
2

> <PUBCHEM_CONFORMER_ID>
017D9A2200000001

> <PUBCHEM_MMFF94_ENERGY>
80.1048

> <PUBCHEM_FEATURE_SELFOVERLAP>
66.154

> <PUBCHEM_SHAPE_FINGERPRINT>
11828532 37 17604710131246673283
12100795 323 17760086619748860203
12156800 1 14513655002553733291
12202916 173 18120906500195226842
12553582 1 18268441139542755268
12788726 201 17832148217033989594
13122387 1 18341612577287238910
13402501 40 17900539283395683393
1361 2 17691956481799515623
140371 6 18339073779459797528
14114206 34 17902239905560995310
14251757 5 17333675785871040006
14659021 117 17834103153129756178
14725015 67 18261097574606215323
16719943 64 16466154411085319726
19315092 285 16556179511437734941
19930381 70 18341325686778988551
20764821 26 18265066742477933458
20775530 9 18335986384835613172
21133410 32 16446205229199944826
23559900 14 18338219540360101965
25019877 29 14090713360032171581
3493558 16 15763043199986256833
445580 102 18336833116215768074
463206 1 18194962933431827944
469060 322 17841672396948863350
5265222 85 16539359921659580476
5309563 4 18341049717654549389
57527585 103 18116453478376937211
613672 6 18195508334085178196
9709674 26 18261946461801704185

> <PUBCHEM_SHAPE_MULTIPOLES>
566.03
8.19
6.8
1.76
2.29
3.74
-0.29
-4.58
0.45
-5.29
0.47
1.43
-1.67
1.92

> <PUBCHEM_SHAPE_SELFOVERLAP>
1232.298

> <PUBCHEM_SHAPE_VOLUME>
310.5

> <PUBCHEM_COORDINATE_TYPE>
2
5
10

$$$$
25008673
  -OEChem-05102415123D

 56 60  0     1  0  0  0  0  0999 V2000
    3.0886    2.2243   -0.2225 O   0  0  0  0  0  0  0  0  0  0  0  0
   -1.4490   -3.0854    0.0714 N   0  0  2  0  0  0  0  0  0  0  0  0
   -3.9013   -0.2686    0.2754 N   0  0  0  0  0  0  0  0  0  0  0  0
    4.2177   -0.3308   -0.1516 N   0  0  0  0  0  0  0  0  0  0  0  0
   -1.6903    4.7224   -0.1895 N   0  0  0  0  0  0  0  0  0  0  0  0
   -0.5626    4.5152   -0.8895 N   0  0  0  0  0  0  0  0  0  0  0  0
    4.8188    3.1207    0.9962 N   0  0  0  0  0  0  0  0  0  0  0  0
   -3.2458   -1.4213   -0.3067 C   0  0  1  0  0  0  0  0  0  0  0  0
   -2.0965   -1.8768    0.6023 C   0  0  0  0  0  0  0  0  0  0  0  0
   -4.2635   -2.5454   -0.5042 C   0  0  0  0  0  0  0  0  0  0  0  0
   -3.5671   -3.8178   -0.9743 C   0  0  0  0  0  0  0  0  0  0  0  0
   -2.4083   -4.1918   -0.0493 C   0  0  0  0  0  0  0  0  0  0  0  0
   -0.3214   -3.4761    0.9175 C   0  0  0  0  0  0  0  0  0  0  0  0
    0.8815   -2.6001    0.6887 C   0  0  0  0  0  0  0  0  0  0  0  0
   -3.3987    1.0178    0.1963 C   0  0  0  0  0  0  0  0  0  0  0  0
    1.6639   -2.7886   -0.4565 C   0  0  0  0  0  0  0  0  0  0  0  0
    1.2035   -1.6128    1.6179 C   0  0  0  0  0  0  0  0  0  0  0  0
    2.7889   -1.9660   -0.6632 C   0  0  0  0  0  0  0  0  0  0  0  0
    3.0874   -0.9845    0.2846 C   0  0  0  0  0  0  0  0  0  0  0  0
    2.3143   -0.7845    1.4337 C   0  0  0  0  0  0  0  0  0  0  0  0
   -2.1919    1.2449   -0.4771 C   0  0  0  0  0  0  0  0  0  0  0  0
   -4.1008    2.0702    0.7866 C   0  0  0  0  0  0  0  0  0  0  0  0
    3.7794   -1.8783   -1.6812 C   0  0  0  0  0  0  0  0  0  0  0  0
   -1.6995    2.5588   -0.5471 C   0  0  0  0  0  0  0  0  0  0  0  0
    4.6431   -0.8637   -1.3387 C   0  0  0  0  0  0  0  0  0  0  0  0
   -2.4187    3.5884    0.0497 C   0  0  0  0  0  0  0  0  0  0  0  0
   -3.6236    3.3835    0.7256 C   0  0  0  0  0  0  0  0  0  0  0  0
    4.8730    0.7633    0.5327 C   0  0  0  0  0  0  0  0  0  0  0  0
   -0.5715    3.1979   -1.1050 C   0  0  0  0  0  0  0  0  0  0  0  0
    4.1504    2.0850    0.3781 C   0  0  0  0  0  0  0  0  0  0  0  0
   -2.8637   -1.1863   -1.3089 H   0  0  0  0  0  0  0  0  0  0  0  0
   -1.3662   -1.0685    0.6929 H   0  0  0  0  0  0  0  0  0  0  0  0
   -2.4785   -2.0597    1.6171 H   0  0  0  0  0  0  0  0  0  0  0  0
   -4.7913   -2.7494    0.4368 H   0  0  0  0  0  0  0  0  0  0  0  0
   -5.0277   -2.2459   -1.2315 H   0  0  0  0  0  0  0  0  0  0  0  0
   -3.1915   -3.6737   -1.9953 H   0  0  0  0  0  0  0  0  0  0  0  0
   -4.2895   -4.6409   -1.0133 H   0  0  0  0  0  0  0  0  0  0  0  0
   -1.9110   -5.0730   -0.4728 H   0  0  0  0  0  0  0  0  0  0  0  0
   -2.7991   -4.4788    0.9359 H   0  0  0  0  0  0  0  0  0  0  0  0
   -0.0071   -4.5034    0.6842 H   0  0  0  0  0  0  0  0  0  0  0  0
   -0.5986   -3.4971    1.9805 H   0  0  0  0  0  0  0  0  0  0  0  0
   -4.7346   -0.4166    0.8343 H   0  0  0  0  0  0  0  0  0  0  0  0
    1.4122   -3.5588   -1.1806 H   0  0  0  0  0  0  0  0  0  0  0  0
    0.5906   -1.4718    2.5055 H   0  0  0  0  0  0  0  0  0  0  0  0
    2.5568   -0.0178    2.1616 H   0  0  0  0  0  0  0  0  0  0  0  0
   -1.6119    0.4679   -0.9591 H   0  0  0  0  0  0  0  0  0  0  0  0
   -5.0379    1.8815    1.3069 H   0  0  0  0  0  0  0  0  0  0  0  0
    3.8525   -2.4903   -2.5697 H   0  0  0  0  0  0  0  0  0  0  0  0
    5.5196   -0.4818   -1.8449 H   0  0  0  0  0  0  0  0  0  0  0  0
   -4.1674    4.2023    1.1834 H   0  0  0  0  0  0  0  0  0  0  0  0
    5.8890    0.8593    0.1331 H   0  0  0  0  0  0  0  0  0  0  0  0
    4.9498    0.5032    1.5940 H   0  0  0  0  0  0  0  0  0  0  0  0
    0.2445    2.7561   -1.6594 H   0  0  0  0  0  0  0  0  0  0  0  0
   -1.9076    5.6687    0.0975 H   0  0  0  0  0  0  0  0  0  0  0  0
    4.4497    4.0656    0.9760 H   0  0  0  0  0  0  0  0  0  0  0  0
    5.6948    2.9829    1.4902 H   0  0  0  0  0  0  0  0  0  0  0  0
  1 30  2  0  0  0  0
  2  9  1  0  0  0  0
  2 12  1  0  0  0  0
  2 13  1  0  0  0  0
  3  8  1  0  0  0  0
  3 15  1  0  0  0  0
  3 42  1  0  0  0  0
  4 19  1  0  0  0  0
  4 25  1  0  0  0  0
  4 28  1  0  0  0  0
  5  6  1  0  0  0  0
  5 26  1  0  0  0  0
  5 54  1  0  0  0  0
  6 29  2  0  0  0  0
  7 30  1  0  0  0  0
  7 55  1  0  0  0  0
  7 56  1  0  0  0  0
  8  9  1  0  0  0  0
  8 10  1  0  0  0  0
  8 31  1  0  0  0  0
  9 32  1  0  0  0  0
  9 33  1  0  0  0  0
 10 11  1  0  0  0  0
 10 34  1  0  0  0  0
 10 35  1  0  0  0  0
 11 12  1  0  0  0  0
 11 36  1  0  0  0  0
 11 37  1  0  0  0  0
 12 38  1  0  0  0  0
 12 39  1  0  0  0  0
 13 14  1  0  0  0  0
 13 40  1  0  0  0  0
 13 41  1  0  0  0  0
 14 16  2  0  0  0  0
 14 17  1  0  0  0  0
 15 21  2  0  0  0  0
 15 22  1  0  0  0  0
 16 18  1  0  0  0  0
 16 43  1  0  0  0  0
 17 20  2  0  0  0  0
 17 44  1  0  0  0  0
 18 19  2  0  0  0  0
 18 23  1  0  0  0  0
 19 20  1  0  0  0  0
 20 45  1  0  0  0  0
 21 24  1  0  0  0  0
 21 46  1  0  0  0  0
 22 27  2  0  0  0  0
 22 47  1  0  0  0  0
 23 25  2  0  0  0  0
 23 48  1  0  0  0  0
 24 26  2  0  0  0  0
 24 29  1  0  0  0  0
 25 49  1  0  0  0  0
 26 27  1  0  0  0  0
 27 50  1  0  0  0  0
 28 30  1  0  0  0  0
 28 51  1  0  0  0  0
 28 52  1  0  0  0  0
 29 53  1  0  0  0  0
M  END
> <PUBCHEM_COMPOUND_CID>
25008673

> <PUBCHEM_CONFORMER_RMSD>
1

> <PUBCHEM_CONFORMER_DIVERSEORDER>
1
230
209
143
245
287
114
117
278
61
352
242
320
271
266
345
338
311
179
119
108
305
208
323
343
188
40
109
295
116
31
76
155
307
51
356
312
334
164
91
270
280
59
201
118
321
214
157
310
297
175
47
357
123
207
3
248
66
339
158
161
231
256
82
134
29
282
138
358
133
333
304
174
254
46
294
324
325
102
318
198
351
28
326
2
225
290
107
49
224
41
144
300
293
58
346
206
182
33
316
70
257
349
359
234
189
251
128
342
202
239
350
64
322
237
193
258
162
110
236
291
153
253
269
87
103
213
313
171
86
168
329
227
250
42
14
267
136
288
327
212
149
360
36
169
263
219
88
178
77
92
191
170
315
247
203
53
43
73
62
180
148
232
113
141
45
210
233
37
274
260
226
99
18
328
190
276
60
353
122
229
84
19
340
319
71
154
63
131
80
135
10
44
48
20
101
145
354
259
26
22
196
308
336
246
292
150
12
57
279
67
32
235
220
223
74
302
124
284
252
111
24
265
54
165
332
211
85
272
156
96
330
11
81
139
6
228
30
120
186
348
129
27
344
301
184
152
16
361
199
151
261
341
181
337
93
335
79
23
298
35
286
355
309
289
187
38
142
8
205
185
303
285
331
95
68
167
296
4
172
275
9
347
105
281
221
244
5
277
241
173
216
166
183
69
273
126
52
104
75
132
130
177
13
283
125
140
243
147
238
98
362
299
264
17
83
115
217
137
317
197
94
34
218
306
314
163
240
262
50
159
89
204
15
146
176
192
72
7
90
194
100
195
25
39
55
215
97
200
121
222
112
65
160
268
127
255
78
56
21
249
106

> <PUBCHEM_MMFF94_PARTIAL_CHARGES>
39
1 -0.57
12 0.27
13 0.41
14 -0.14
15 0.1
16 -0.15
17 -0.15
19 -0.15
2 -0.81
20 -0.15
21 -0.15
22 -0.15
23 -0.15
25 -0.3
26 -0.15
27 -0.15
28 0.32
29 0.14
3 -0.87
30 0.57
4 0.05
42 0.4
43 0.15
44 0.15
45 0.15
46 0.15
47 0.15
48 0.15
49 0.15
5 0.3
50 0.15
53 0.15
54 0.27
55 0.37
56 0.37
6 -0.71
7 -0.8
8 0.37
9 0.27

> <PUBCHEM_EFFECTIVE_ROTOR_COUNT>
7.2

> <PUBCHEM_PHARMACOPHORE_FEATURES>
13
1 1 acceptor
1 2 cation
1 3 cation
1 3 donor
1 4 cation
1 5 donor
1 6 acceptor
1 7 donor
5 4 18 19 23 25 rings
5 5 6 24 26 29 rings
6 14 16 17 18 19 20 rings
6 15 21 22 24 26 27 rings
6 2 8 9 10 11 12 rings

> <PUBCHEM_HEAVY_ATOM_COUNT>
30

> <PUBCHEM_ATOM_DEF_STEREO_COUNT>
0

> <PUBCHEM_ATOM_UDEF_STEREO_COUNT>
1

> <PUBCHEM_BOND_DEF_STEREO_COUNT>
0

> <PUBCHEM_BOND_UDEF_STEREO_COUNT>
0

> <PUBCHEM_ISOTOPIC_ATOM_COUNT>
0

> <PUBCHEM_COMPONENT_COUNT>
1

> <PUBCHEM_CACTVS_TAUTO_COUNT>
4

> <PUBCHEM_CONFORMER_ID>
017D9A2100000001

> <PUBCHEM_MMFF94_ENERGY>
65.2324

> <PUBCHEM_FEATURE_SELFOVERLAP>
66.155

> <PUBCHEM_SHAPE_FINGERPRINT>
10439779 11 18050270493593855490
10498660 4 18335413543905240711
10670039 82 18263370187509793510
10864689 126 18050573937159648700
10871710 139 18338238172513736071
11014199 57 18267311022041311887
11059048 146 17550112458927782137
11211813 163 18120395163724022214
11410812 94 18121253985816417822
11513181 2 18269853054417393582
12925494 130 16969140333439238881
12978246 48 18047188549025485849
13122387 1 18047749295660710009
13561361 72 18338790221634451480
1361 2 18265330608690370385
14114211 80 17768264418338601705
144659 178 18192717962463448724
14790565 3 18124880062863026353
14840074 17 18045519533994386921
150020 26 16752673968745031937
15082195 135 17327437144395823861
151778 21 17474110895527529177
15320467 1 17978228592833851880
15322535 138 18264757767020967472
15721738 15 16892837546180500956
15961568 22 18123184873366717558
15975801 100 17532943693135920156
16067690 210 18115014329219443714
16992727 255 17398979084618009454
17921350 177 17768806473033528814
17977149 70 18411421713333856064
19611394 137 17250055100596261218
20764821 26 18262811781742359100
21344244 246 16610527538076372175
22113638 7 17619625130460890510
22121540 332 18128540556495078772
24180151 248 18128269887450954223
325973 47 17689718983625376601
373842 8 17544185443204826072
463206 1 18191028000638619261
469060 322 16877663474352708711
50150288 127 16413822343496762792
5252454 2 18044383716475002950
5776283 40 18194987179139094214
6004065 56 17692519435763353623
6036956 94 17972318683807582221
6287921 2 18335710390548746492
6371009 1 17759780577992012267
653340 110 18411693322818056408
6700243 42 17768851797792515582
7808743 9 18337957766308648802

> <PUBCHEM_SHAPE_MULTIPOLES>
581.63
9.98
7.18
1.23
6.43
2.85
-0.01
2.57
-0.44
-6.08
-0.71
0.81
-0.26
0.24

> <PUBCHEM_SHAPE_SELFOVERLAP>
1279.653

> <PUBCHEM_SHAPE_VOLUME>
315.7

> <PUBCHEM_COORDINATE_TYPE>
2
5
10

$$$$
25008672
  -OEChem-05102415123D

 56 60  0     1  0  0  0  0  0999 V2000
   -0.6335   -2.2479    0.9940 O   0  0  0  0  0  0  0  0  0  0  0  0
   -0.1205    3.3432    0.0629 N   0  0  2  0  0  0  0  0  0  0  0  0
    3.0792    1.4866    0.6157 N   0  0  0  0  0  0  0  0  0  0  0  0
   -3.2863   -1.4930    0.5455 N   0  0  0  0  0  0  0  0  0  0  0  0
    2.9636   -3.7709   -0.9204 N   0  0  0  0  0  0  0  0  0  0  0  0
    2.0115   -3.8127   -1.8673 N   0  0  0  0  0  0  0  0  0  0  0  0
   -1.1034   -2.9628    3.1272 N   0  0  0  0  0  0  0  0  0  0  0  0
    2.1912    2.4525    0.0026 C   0  0  1  0  0  0  0  0  0  0  0  0
    0.7911    2.3325    0.6191 C   0  0  0  0  0  0  0  0  0  0  0  0
    2.7533    3.8615    0.1952 C   0  0  0  0  0  0  0  0  0  0  0  0
    1.7615    4.9041   -0.3090 C   0  0  0  0  0  0  0  0  0  0  0  0
    0.3788    4.7025    0.3120 C   0  0  0  0  0  0  0  0  0  0  0  0
   -1.4641    3.1820    0.6182 C   0  0  0  0  0  0  0  0  0  0  0  0
   -2.1940    2.0230   -0.0069 C   0  0  0  0  0  0  0  0  0  0  0  0
    3.1019    0.1457    0.2766 C   0  0  0  0  0  0  0  0  0  0  0  0
   -2.3236    0.8285    0.7075 C   0  0  0  0  0  0  0  0  0  0  0  0
   -3.0095   -0.2237    0.0900 C   0  0  0  0  0  0  0  0  0  0  0  0
   -2.7291    2.1566   -1.2865 C   0  0  0  0  0  0  0  0  0  0  0  0
   -3.5563   -0.1182   -1.1907 C   0  0  0  0  0  0  0  0  0  0  0  0
    2.2286   -0.3295   -0.7099 C   0  0  0  0  0  0  0  0  0  0  0  0
   -3.4124    1.0954   -1.8918 C   0  0  0  0  0  0  0  0  0  0  0  0
    3.9944   -0.7136    0.9201 C   0  0  0  0  0  0  0  0  0  0  0  0
    2.2687   -1.6944   -1.0405 C   0  0  0  0  0  0  0  0  0  0  0  0
   -4.1710   -1.3671   -1.4864 C   0  0  0  0  0  0  0  0  0  0  0  0
   -3.9878   -2.1915   -0.4001 C   0  0  0  0  0  0  0  0  0  0  0  0
    3.1671   -2.5281   -0.3839 C   0  0  0  0  0  0  0  0  0  0  0  0
    4.0461   -2.0746    0.6021 C   0  0  0  0  0  0  0  0  0  0  0  0
   -2.8996   -2.0270    1.8338 C   0  0  0  0  0  0  0  0  0  0  0  0
    1.5910   -2.5477   -1.9374 C   0  0  0  0  0  0  0  0  0  0  0  0
   -1.4368   -2.4111    1.9082 C   0  0  0  0  0  0  0  0  0  0  0  0
    2.1397    2.2986   -1.0834 H   0  0  0  0  0  0  0  0  0  0  0  0
    0.3992    1.3293    0.4320 H   0  0  0  0  0  0  0  0  0  0  0  0
    0.8587    2.4358    1.7119 H   0  0  0  0  0  0  0  0  0  0  0  0
    2.9612    4.0453    1.2577 H   0  0  0  0  0  0  0  0  0  0  0  0
    3.7089    3.9673   -0.3322 H   0  0  0  0  0  0  0  0  0  0  0  0
    1.6871    4.8400   -1.4020 H   0  0  0  0  0  0  0  0  0  0  0  0
    2.1301    5.9087   -0.0727 H   0  0  0  0  0  0  0  0  0  0  0  0
   -0.3011    5.4381   -0.1350 H   0  0  0  0  0  0  0  0  0  0  0  0
    0.4231    4.9106    1.3893 H   0  0  0  0  0  0  0  0  0  0  0  0
   -2.0703    4.0768    0.4171 H   0  0  0  0  0  0  0  0  0  0  0  0
   -1.4436    3.0918    1.7130 H   0  0  0  0  0  0  0  0  0  0  0  0
    3.6655    1.7890    1.3861 H   0  0  0  0  0  0  0  0  0  0  0  0
   -1.9073    0.7209    1.7039 H   0  0  0  0  0  0  0  0  0  0  0  0
   -2.6221    3.0904   -1.8337 H   0  0  0  0  0  0  0  0  0  0  0  0
    1.5232    0.2935   -1.2452 H   0  0  0  0  0  0  0  0  0  0  0  0
   -3.8246    1.2133   -2.8899 H   0  0  0  0  0  0  0  0  0  0  0  0
    4.6685   -0.3326    1.6848 H   0  0  0  0  0  0  0  0  0  0  0  0
   -4.6906   -1.6354   -2.3960 H   0  0  0  0  0  0  0  0  0  0  0  0
   -4.2986   -3.2136   -0.2293 H   0  0  0  0  0  0  0  0  0  0  0  0
    4.7384   -2.7436    1.1009 H   0  0  0  0  0  0  0  0  0  0  0  0
   -3.5148   -2.9107    2.0382 H   0  0  0  0  0  0  0  0  0  0  0  0
   -3.1255   -1.2736    2.5961 H   0  0  0  0  0  0  0  0  0  0  0  0
    0.8068   -2.2984   -2.6382 H   0  0  0  0  0  0  0  0  0  0  0  0
    3.4411   -4.6319   -0.6846 H   0  0  0  0  0  0  0  0  0  0  0  0
   -0.1547   -3.2659    3.3205 H   0  0  0  0  0  0  0  0  0  0  0  0
   -1.7830   -3.0862    3.8710 H   0  0  0  0  0  0  0  0  0  0  0  0
  1 30  2  0  0  0  0
  2  9  1  0  0  0  0
  2 12  1  0  0  0  0
  2 13  1  0  0  0  0
  3  8  1  0  0  0  0
  3 15  1  0  0  0  0
  3 42  1  0  0  0  0
  4 17  1  0  0  0  0
  4 25  1  0  0  0  0
  4 28  1  0  0  0  0
  5  6  1  0  0  0  0
  5 26  1  0  0  0  0
  5 54  1  0  0  0  0
  6 29  2  0  0  0  0
  7 30  1  0  0  0  0
  7 55  1  0  0  0  0
  7 56  1  0  0  0  0
  8  9  1  0  0  0  0
  8 10  1  0  0  0  0
  8 31  1  0  0  0  0
  9 32  1  0  0  0  0
  9 33  1  0  0  0  0
 10 11  1  0  0  0  0
 10 34  1  0  0  0  0
 10 35  1  0  0  0  0
 11 12  1  0  0  0  0
 11 36  1  0  0  0  0
 11 37  1  0  0  0  0
 12 38  1  0  0  0  0
 12 39  1  0  0  0  0
 13 14  1  0  0  0  0
 13 40  1  0  0  0  0
 13 41  1  0  0  0  0
 14 16  2  0  0  0  0
 14 18  1  0  0  0  0
 15 20  2  0  0  0  0
 15 22  1  0  0  0  0
 16 17  1  0  0  0  0
 16 43  1  0  0  0  0
 17 19  2  0  0  0  0
 18 21  2  0  0  0  0
 18 44  1  0  0  0  0
 19 21  1  0  0  0  0
 19 24  1  0  0  0  0
 20 23  1  0  0  0  0
 20 45  1  0  0  0  0
 21 46  1  0  0  0  0
 22 27  2  0  0  0  0
 22 47  1  0  0  0  0
 23 26  2  0  0  0  0
 23 29  1  0  0  0  0
 24 25  2  0  0  0  0
 24 48  1  0  0  0  0
 25 49  1  0  0  0  0
 26 27  1  0  0  0  0
 27 50  1  0  0  0  0
 28 30  1  0  0  0  0
 28 51  1  0  0  0  0
 28 52  1  0  0  0  0
 29 53  1  0  0  0  0
M  END
> <PUBCHEM_COMPOUND_CID>
25008672

> <PUBCHEM_CONFORMER_RMSD>
1.2

> <PUBCHEM_CONFORMER_DIVERSEORDER>
1
117
93
96
69
61
138
123
103
78
85
47
84
52
58
68
94
87
48
53
86
121
20
26
132
43
134
102
23
8
83
95
44
127
89
76
35
128
18
114
116
67
55
131
9
98
108
71
42
34
28
137
90
75
31
12
46
10
57
2
41
129
7
133
64
80
92
40
107
97
65
111
70
37
105
130
24
54
136
125
74
3
33
104
45
39
126
124
113
13
110
56
115
29
118
4
79
15
51
21
82
17
120
36
122
5
77
91
16
119
88
49
109
63
50
6
62
135
106
32
101
19
112
72
30
60
100
66
14
81
25
27
99
73
38
22
11
59

> <PUBCHEM_MMFF94_PARTIAL_CHARGES>
39
1 -0.57
12 0.27
13 0.41
14 -0.14
15 0.1
16 -0.15
17 -0.15
18 -0.15
2 -0.81
20 -0.15
21 -0.15
22 -0.15
24 -0.15
25 -0.3
26 -0.15
27 -0.15
28 0.32
29 0.14
3 -0.87
30 0.57
4 0.05
42 0.4
43 0.15
44 0.15
45 0.15
46 0.15
47 0.15
48 0.15
49 0.15
5 0.3
50 0.15
53 0.15
54 0.27
55 0.37
56 0.37
6 -0.71
7 -0.8
8 0.37
9 0.27

> <PUBCHEM_EFFECTIVE_ROTOR_COUNT>
7.2

> <PUBCHEM_PHARMACOPHORE_FEATURES>
13
1 1 acceptor
1 2 cation
1 3 cation
1 3 donor
1 4 cation
1 5 donor
1 6 acceptor
1 7 donor
5 4 17 19 24 25 rings
5 5 6 23 26 29 rings
6 14 16 17 18 19 21 rings
6 15 20 22 23 26 27 rings
6 2 8 9 10 11 12 rings

> <PUBCHEM_HEAVY_ATOM_COUNT>
30

> <PUBCHEM_ATOM_DEF_STEREO_COUNT>
1

> <PUBCHEM_ATOM_UDEF_STEREO_COUNT>
0

> <PUBCHEM_BOND_DEF_STEREO_COUNT>
0

> <PUBCHEM_BOND_UDEF_STEREO_COUNT>
0

> <PUBCHEM_ISOTOPIC_ATOM_COUNT>
0

> <PUBCHEM_COMPONENT_COUNT>
1

> <PUBCHEM_CACTVS_TAUTO_COUNT>
4

> <PUBCHEM_CONFORMER_ID>
017D9A2000000001

> <PUBCHEM_MMFF94_ENERGY>
64.443

> <PUBCHEM_FEATURE_SELFOVERLAP>
66.155

> <PUBCHEM_SHAPE_FINGERPRINT>
11828532 37 17750230486598160347
12100795 323 17616251824280922625
12156800 1 11970636365834802842
12202916 173 18193246694522867570
12553582 1 18268723726916034588
12788726 201 17904492800902680690
13122387 1 18339644438662262910
13402501 40 17901664100939261713
1361 2 17620461846283831655
140371 6 18339637837520049456
14114206 34 17902521384806156692
14251757 5 17334521314623519918
14363568 33 17978258228482221050
14659021 117 17907006280225687146
14725015 67 18261094297487912331
15297060 5 15533598074768137530
19315092 285 16484687066350110117
19930381 70 18341888649590964063
20600515 1 17968938570361951732
20764821 26 18338250253702624378
21133410 32 16518824690917518642
23559900 14 18338502131959809237
25019877 29 14235111126880822645
3493558 16 15978656347840227401
445580 102 18265617756611341132
463206 1 18194681471261021292
469060 322 17770460335905687102
5309563 4 18341893051684139253
57527585 103 18116737169467212283

> <PUBCHEM_SHAPE_MULTIPOLES>
581.63
7.82
6.76
1.88
1.69
4.84
-0.52
-3.75
1.19
-4.91
0.13
1.22
-2.12
2.05

> <PUBCHEM_SHAPE_SELFOVERLAP>
1279.869

> <PUBCHEM_SHAPE_VOLUME>
314.6

> <PUBCHEM_COORDINATE_TYPE>
2
5
10

$$$$
25008671
  -OEChem-05102415123D

 56 60  0     1  0  0  0  0  0999 V2000
   -1.9333   -1.2081    2.3105 O   0  0  0  0  0  0  0  0  0  0  0  0
   -0.3292    2.9203   -0.2535 N   0  0  1  0  0  0  0  0  0  0  0  0
    3.2119    1.8066    0.1665 N   0  0  0  0  0  0  0  0  0  0  0  0
   -3.7975   -1.1954    0.2292 N   0  0  0  0  0  0  0  0  0  0  0  0
    3.9365   -3.6147   -0.1474 N   0  0  0  0  0  0  0  0  0  0  0  0
    2.7474   -4.1239    0.2151 N   0  0  0  0  0  0  0  0  0  0  0  0
   -3.5210   -0.5987    3.8565 N   0  0  0  0  0  0  0  0  0  0  0  0
    1.9360    2.3561    0.5721 C   0  0  2  0  0  0  0  0  0  0  0  0
    0.9615    2.3136   -0.6113 C   0  0  0  0  0  0  0  0  0  0  0  0
    2.1271    3.7866    1.0756 C   0  0  0  0  0  0  0  0  0  0  0  0
    0.7759    4.4320    1.3637 C   0  0  0  0  0  0  0  0  0  0  0  0
   -0.1612    4.3204    0.1602 C   0  0  0  0  0  0  0  0  0  0  0  0
   -1.2667    2.8264   -1.3723 C   0  0  0  0  0  0  0  0  0  0  0  0
   -1.8346    1.4438   -1.5150 C   0  0  0  0  0  0  0  0  0  0  0  0
    3.4633    0.4500    0.0671 C   0  0  0  0  0  0  0  0  0  0  0  0
   -2.5520    0.8842   -0.4538 C   0  0  0  0  0  0  0  0  0  0  0  0
   -3.0643   -0.4064   -0.6283 C   0  0  0  0  0  0  0  0  0  0  0  0
   -1.6388    0.7389   -2.7009 C   0  0  0  0  0  0  0  0  0  0  0  0
   -2.8842   -1.1361   -1.8055 C   0  0  0  0  0  0  0  0  0  0  0  0
    2.4452   -0.4627    0.3700 C   0  0  0  0  0  0  0  0  0  0  0  0
   -2.1569   -0.5515   -2.8611 C   0  0  0  0  0  0  0  0  0  0  0  0
    4.7260    0.0100   -0.3344 C   0  0  0  0  0  0  0  0  0  0  0  0
    2.7208   -1.8360    0.2613 C   0  0  0  0  0  0  0  0  0  0  0  0
   -3.5352   -2.3883   -1.6242 C   0  0  0  0  0  0  0  0  0  0  0  0
   -4.0867   -2.3951   -0.3637 C   0  0  0  0  0  0  0  0  0  0  0  0
    3.9868   -2.2468   -0.1408 C   0  0  0  0  0  0  0  0  0  0  0  0
    5.0157   -1.3536   -0.4474 C   0  0  0  0  0  0  0  0  0  0  0  0
   -4.2110   -0.8256    1.5659 C   0  0  0  0  0  0  0  0  0  0  0  0
    2.0104   -3.0388    0.4632 C   0  0  0  0  0  0  0  0  0  0  0  0
   -3.0921   -0.9073    2.5829 C   0  0  0  0  0  0  0  0  0  0  0  0
    1.5233    1.7949    1.4209 H   0  0  0  0  0  0  0  0  0  0  0  0
    1.4046    2.8351   -1.4722 H   0  0  0  0  0  0  0  0  0  0  0  0
    0.8093    1.2780   -0.9303 H   0  0  0  0  0  0  0  0  0  0  0  0
    2.7471    3.7945    1.9802 H   0  0  0  0  0  0  0  0  0  0  0  0
    2.6609    4.3853    0.3258 H   0  0  0  0  0  0  0  0  0  0  0  0
    0.9188    5.4867    1.6246 H   0  0  0  0  0  0  0  0  0  0  0  0
    0.3165    3.9468    2.2342 H   0  0  0  0  0  0  0  0  0  0  0  0
    0.2266    4.9281   -0.6680 H   0  0  0  0  0  0  0  0  0  0  0  0
   -1.1312    4.7433    0.4490 H   0  0  0  0  0  0  0  0  0  0  0  0
   -0.8074    3.1732   -2.3079 H   0  0  0  0  0  0  0  0  0  0  0  0
   -2.1270    3.4898   -1.2048 H   0  0  0  0  0  0  0  0  0  0  0  0
    3.9418    2.4453   -0.1304 H   0  0  0  0  0  0  0  0  0  0  0  0
   -2.7107    1.4315    0.4700 H   0  0  0  0  0  0  0  0  0  0  0  0
   -1.0778    1.1809   -3.5209 H   0  0  0  0  0  0  0  0  0  0  0  0
    1.4520   -0.1767    0.6934 H   0  0  0  0  0  0  0  0  0  0  0  0
   -1.9965   -1.0900   -3.7907 H   0  0  0  0  0  0  0  0  0  0  0  0
    5.5092    0.7287   -0.5673 H   0  0  0  0  0  0  0  0  0  0  0  0
   -3.5935   -3.1987   -2.3379 H   0  0  0  0  0  0  0  0  0  0  0  0
   -4.6565   -3.1554    0.1534 H   0  0  0  0  0  0  0  0  0  0  0  0
    5.9958   -1.6972   -0.7591 H   0  0  0  0  0  0  0  0  0  0  0  0
   -5.0246   -1.4934    1.8709 H   0  0  0  0  0  0  0  0  0  0  0  0
   -4.6067    0.1953    1.5293 H   0  0  0  0  0  0  0  0  0  0  0  0
    0.9852   -3.1676    0.7806 H   0  0  0  0  0  0  0  0  0  0  0  0
    4.6785   -4.2593   -0.3897 H   0  0  0  0  0  0  0  0  0  0  0  0
   -2.8776   -0.6108    4.6409 H   0  0  0  0  0  0  0  0  0  0  0  0
   -4.4839   -0.3498    4.0593 H   0  0  0  0  0  0  0  0  0  0  0  0
  1 30  2  0  0  0  0
  2  9  1  0  0  0  0
  2 12  1  0  0  0  0
  2 13  1  0  0  0  0
  3  8  1  0  0  0  0
  3 15  1  0  0  0  0
  3 42  1  0  0  0  0
  4 17  1  0  0  0  0
  4 25  1  0  0  0  0
  4 28  1  0  0  0  0
  5  6  1  0  0  0  0
  5 26  1  0  0  0  0
  5 54  1  0  0  0  0
  6 29  2  0  0  0  0
  7 30  1  0  0  0  0
  7 55  1  0  0  0  0
  7 56  1  0  0  0  0
  8  9  1  0  0  0  0
  8 10  1  0  0  0  0
  8 31  1  0  0  0  0
  9 32  1  0  0  0  0
  9 33  1  0  0  0  0
 10 11  1  0  0  0  0
 10 34  1  0  0  0  0
 10 35  1  0  0  0  0
 11 12  1  0  0  0  0
 11 36  1  0  0  0  0
 11 37  1  0  0  0  0
 12 38  1  0  0  0  0
 12 39  1  0  0  0  0
 13 14  1  0  0  0  0
 13 40  1  0  0  0  0
 13 41  1  0  0  0  0
 14 16  2  0  0  0  0
 14 18  1  0  0  0  0
 15 20  2  0  0  0  0
 15 22  1  0  0  0  0
 16 17  1  0  0  0  0
 16 43  1  0  0  0  0
 17 19  2  0  0  0  0
 18 21  2  0  0  0  0
 18 44  1  0  0  0  0
 19 21  1  0  0  0  0
 19 24  1  0  0  0  0
 20 23  1  0  0  0  0
 20 45  1  0  0  0  0
 21 46  1  0  0  0  0
 22 27  2  0  0  0  0
 22 47  1  0  0  0  0
 23 26  2  0  0  0  0
 23 29  1  0  0  0  0
 24 25  2  0  0  0  0
 24 48  1  0  0  0  0
 25 49  1  0  0  0  0
 26 27  1  0  0  0  0
 27 50  1  0  0  0  0
 28 30  1  0  0  0  0
 28 51  1  0  0  0  0
 28 52  1  0  0  0  0
 29 53  1  0  0  0  0
M  END
> <PUBCHEM_COMPOUND_CID>
25008671

> <PUBCHEM_CONFORMER_RMSD>
1.2

> <PUBCHEM_CONFORMER_DIVERSEORDER>
1
61
76
134
51
105
104
44
132
16
92
24
135
21
120
125
75
94
102
14
3
128
60
71
119
68
88
100
110
35
57
47
55
50
101
83
15
90
87
123
66
82
109
129
84
46
26
107
78
86
106
29
33
127
22
56
85
23
79
95
45
58
97
9
81
70
121
67
31
91
5
124
96
131
52
115
64
39
117
103
41
30
37
114
18
126
111
2
73
93
25
130
6
63
113
34
38
122
43
69
7
8
108
89
133
77
62
80
116
53
4
20
54
59
118
99
11
136
27
17
137
49
32
112
36
12
72
48
28
74
19
65
98
42
10
40
13

> <PUBCHEM_MMFF94_PARTIAL_CHARGES>
39
1 -0.57
12 0.27
13 0.41
14 -0.14
15 0.1
16 -0.15
17 -0.15
18 -0.15
2 -0.81
20 -0.15
21 -0.15
22 -0.15
24 -0.15
25 -0.3
26 -0.15
27 -0.15
28 0.32
29 0.14
3 -0.87
30 0.57
4 0.05
42 0.4
43 0.15
44 0.15
45 0.15
46 0.15
47 0.15
48 0.15
49 0.15
5 0.3
50 0.15
53 0.15
54 0.27
55 0.37
56 0.37
6 -0.71
7 -0.8
8 0.37
9 0.27

> <PUBCHEM_EFFECTIVE_ROTOR_COUNT>
7.2

> <PUBCHEM_PHARMACOPHORE_FEATURES>
13
1 1 acceptor
1 2 cation
1 3 cation
1 3 donor
1 4 cation
1 5 donor
1 6 acceptor
1 7 donor
5 4 17 19 24 25 rings
5 5 6 23 26 29 rings
6 14 16 17 18 19 21 rings
6 15 20 22 23 26 27 rings
6 2 8 9 10 11 12 rings

> <PUBCHEM_HEAVY_ATOM_COUNT>
30

> <PUBCHEM_ATOM_DEF_STEREO_COUNT>
1

> <PUBCHEM_ATOM_UDEF_STEREO_COUNT>
0

> <PUBCHEM_BOND_DEF_STEREO_COUNT>
0

> <PUBCHEM_BOND_UDEF_STEREO_COUNT>
0

> <PUBCHEM_ISOTOPIC_ATOM_COUNT>
0

> <PUBCHEM_COMPONENT_COUNT>
1

> <PUBCHEM_CACTVS_TAUTO_COUNT>
4

> <PUBCHEM_CONFORMER_ID>
017D9A1F00000001

> <PUBCHEM_MMFF94_ENERGY>
65.1851

> <PUBCHEM_FEATURE_SELFOVERLAP>
66.155

> <PUBCHEM_SHAPE_FINGERPRINT>
10764073 3 17759267114931597697
107951 10 17392480991981857349
10928967 22 18342740723868478182
114674 6 18121481703848202996
12128747 34 18260838098889967945
12786520 15 17983051952676273842
12788726 201 17765693746756496940
13402501 40 18040995197594660730
1361 2 17832973224427824871
14279260 333 17541939785453421450
14844126 61 17837752453522971362
15274700 242 15233561125546544339
15403338 16 17914901061697324323
17974551 9 18263664934510598377
19315092 285 17486471983309688847
19930381 70 18194106628674708063
20764821 26 18335981965630971658
20775530 9 18334288751983402868
21133410 38 17262441111794362823
21315759 227 18115573873506755390
22440779 20 18042145205464828365
3383291 50 17765135190955214967
3737641 26 18412549790952219238
404807 14 18341049597934425399
463206 1 18410011078433072246
5309563 4 18340758338356894462
57307002 85 17749937986033835512
66674814 147 16609089329115205286
77296 10 18266464398937179259
86090 222 17823700961118803091

> <PUBCHEM_SHAPE_MULTIPOLES>
581.63
9.24
5.68
2.54
2.77
3.43
1.24
-8.26
0.85
4.83
0.93
-4.56
-0.26
0.9

> <PUBCHEM_SHAPE_SELFOVERLAP>
1279.893

> <PUBCHEM_SHAPE_VOLUME>
314.7

> <PUBCHEM_COORDINATE_TYPE>
2
5
10

$$$$
25008670
  -OEChem-05102415123D

 56 60  0     1  0  0  0  0  0999 V2000
   -0.5331   -2.3021    1.4597 O   0  0  0  0  0  0  0  0  0  0  0  0
   -0.3001    3.2502   -0.0105 N   0  0  2  0  0  0  0  0  0  0  0  0
    2.9927    1.5833    0.5970 N   0  0  0  0  0  0  0  0  0  0  0  0
   -3.2541   -1.6832    0.7960 N   0  0  0  0  0  0  0  0  0  0  0  0
    3.1177   -3.7495   -0.6518 N   0  0  0  0  0  0  0  0  0  0  0  0
    2.1582   -3.8889   -1.5817 N   0  0  0  0  0  0  0  0  0  0  0  0
    2.0516    2.4703   -0.0549 C   0  0  1  0  0  0  0  0  0  0  0  0
    0.6661    2.3166    0.5866 C   0  0  0  0  0  0  0  0  0  0  0  0
    2.5460    3.9132    0.0536 C   0  0  0  0  0  0  0  0  0  0  0  0
    1.4988    4.8776   -0.4922 C   0  0  0  0  0  0  0  0  0  0  0  0
    0.1347    4.6435    0.1580 C   0  0  0  0  0  0  0  0  0  0  0  0
   -1.6279    3.0547    0.5712 C   0  0  0  0  0  0  0  0  0  0  0  0
   -2.3073    1.8333    0.0229 C   0  0  0  0  0  0  0  0  0  0  0  0
    3.0773    0.2286    0.3303 C   0  0  0  0  0  0  0  0  0  0  0  0
   -2.3879    0.6814    0.8106 C   0  0  0  0  0  0  0  0  0  0  0  0
   -3.0295   -0.4344    0.2616 C   0  0  0  0  0  0  0  0  0  0  0  0
   -2.8470    1.8648   -1.2614 C   0  0  0  0  0  0  0  0  0  0  0  0
   -3.5799   -0.4318   -1.0220 C   0  0  0  0  0  0  0  0  0  0  0  0
   -3.4860    0.7407   -1.7977 C   0  0  0  0  0  0  0  0  0  0  0  0
    2.2174   -0.3413   -0.6169 C   0  0  0  0  0  0  0  0  0  0  0  0
    4.0181   -0.5502    1.0068 C   0  0  0  0  0  0  0  0  0  0  0  0
   -4.1426   -1.7209   -1.2378 C   0  0  0  0  0  0  0  0  0  0  0  0
   -3.9260   -2.4676   -0.1028 C   0  0  0  0  0  0  0  0  0  0  0  0
   -2.8462   -2.1194    2.1141 C   0  0  0  0  0  0  0  0  0  0  0  0
    2.3205   -1.7187   -0.8739 C   0  0  0  0  0  0  0  0  0  0  0  0
    3.2661   -2.4710   -0.1859 C   0  0  0  0  0  0  0  0  0  0  0  0
    4.1328   -1.9225    0.7619 C   0  0  0  0  0  0  0  0  0  0  0  0
   -1.6057   -3.0052    2.0736 C   0  0  0  0  0  0  0  0  0  0  0  0
    1.6754   -2.6514   -1.7141 C   0  0  0  0  0  0  0  0  0  0  0  0
    1.9955    2.2551   -1.1302 H   0  0  0  0  0  0  0  0  0  0  0  0
    0.3211    1.2870    0.4595 H   0  0  0  0  0  0  0  0  0  0  0  0
    0.7409    2.4826    1.6711 H   0  0  0  0  0  0  0  0  0  0  0  0
    2.7567    4.1645    1.1016 H   0  0  0  0  0  0  0  0  0  0  0  0
    3.4894    4.0362   -0.4920 H   0  0  0  0  0  0  0  0  0  0  0  0
    1.4153    4.7506   -1.5790 H   0  0  0  0  0  0  0  0  0  0  0  0
    1.8203    5.9102   -0.3155 H   0  0  0  0  0  0  0  0  0  0  0  0
   -0.5853    5.3200   -0.3185 H   0  0  0  0  0  0  0  0  0  0  0  0
    0.1808    4.9120    1.2217 H   0  0  0  0  0  0  0  0  0  0  0  0
   -1.5894    3.0283    1.6690 H   0  0  0  0  0  0  0  0  0  0  0  0
   -2.2785    3.9076    0.3306 H   0  0  0  0  0  0  0  0  0  0  0  0
    3.5722    1.9553    1.3417 H   0  0  0  0  0  0  0  0  0  0  0  0
   -1.9617    0.6586    1.8079 H   0  0  0  0  0  0  0  0  0  0  0  0
   -2.7787    2.7662   -1.8661 H   0  0  0  0  0  0  0  0  0  0  0  0
   -3.9023    0.7789   -2.8003 H   0  0  0  0  0  0  0  0  0  0  0  0
    1.4763    0.2168   -1.1752 H   0  0  0  0  0  0  0  0  0  0  0  0
    4.6812   -0.0959    1.7404 H   0  0  0  0  0  0  0  0  0  0  0  0
   -4.6509   -2.0663   -2.1276 H   0  0  0  0  0  0  0  0  0  0  0  0
   -4.1952   -3.4880    0.1348 H   0  0  0  0  0  0  0  0  0  0  0  0
   -2.6670   -1.2376    2.7358 H   0  0  0  0  0  0  0  0  0  0  0  0
   -3.6884   -2.6641    2.5560 H   0  0  0  0  0  0  0  0  0  0  0  0
    4.8627   -2.5290    1.2863 H   0  0  0  0  0  0  0  0  0  0  0  0
   -1.3071   -3.2840    3.0888 H   0  0  0  0  0  0  0  0  0  0  0  0
   -1.7913   -3.9181    1.4981 H   0  0  0  0  0  0  0  0  0  0  0  0
    0.8721   -2.4789   -2.4163 H   0  0  0  0  0  0  0  0  0  0  0  0
    3.6394   -4.5722   -0.3765 H   0  0  0  0  0  0  0  0  0  0  0  0
    0.2344   -2.8991    1.4548 H   0  0  0  0  0  0  0  0  0  0  0  0
  1 28  1  0  0  0  0
  1 56  1  0  0  0  0
  2  8  1  0  0  0  0
  2 11  1  0  0  0  0
  2 12  1  0  0  0  0
  3  7  1  0  0  0  0
  3 14  1  0  0  0  0
  3 41  1  0  0  0  0
  4 16  1  0  0  0  0
  4 23  1  0  0  0  0
  4 24  1  0  0  0  0
  5  6  1  0  0  0  0
  5 26  1  0  0  0  0
  5 55  1  0  0  0  0
  6 29  2  0  0  0  0
  7  8  1  0  0  0  0
  7  9  1  0  0  0  0
  7 30  1  0  0  0  0
  8 31  1  0  0  0  0
  8 32  1  0  0  0  0
  9 10  1  0  0  0  0
  9 33  1  0  0  0  0
  9 34  1  0  0  0  0
 10 11  1  0  0  0  0
 10 35  1  0  0  0  0
 10 36  1  0  0  0  0
 11 37  1  0  0  0  0
 11 38  1  0  0  0  0
 12 13  1  0  0  0  0
 12 39  1  0  0  0  0
 12 40  1  0  0  0  0
 13 15  2  0  0  0  0
 13 17  1  0  0  0  0
 14 20  2  0  0  0  0
 14 21  1  0  0  0  0
 15 16  1  0  0  0  0
 15 42  1  0  0  0  0
 16 18  2  0  0  0  0
 17 19  2  0  0  0  0
 17 43  1  0  0  0  0
 18 19  1  0  0  0  0
 18 22  1  0  0  0  0
 19 44  1  0  0  0  0
 20 25  1  0  0  0  0
 20 45  1  0  0  0  0
 21 27  2  0  0  0  0
 21 46  1  0  0  0  0
 22 23  2  0  0  0  0
 22 47  1  0  0  0  0
 23 48  1  0  0  0  0
 24 28  1  0  0  0  0
 24 49  1  0  0  0  0
 24 50  1  0  0  0  0
 25 26  2  0  0  0  0
 25 29  1  0  0  0  0
 26 27  1  0  0  0  0
 27 51  1  0  0  0  0
 28 52  1  0  0  0  0
 28 53  1  0  0  0  0
 29 54  1  0  0  0  0
M  END
> <PUBCHEM_COMPOUND_CID>
25008670

> <PUBCHEM_CONFORMER_RMSD>
1.2

> <PUBCHEM_CONFORMER_DIVERSEORDER>
1
129
62
48
116
63
105
94
53
49
42
69
138
33
113
79
124
23
119
144
100
29
137
13
71
67
54
74
98
55
80
59
6
106
104
36
50
117
75
139
22
20
18
64
39
88
101
68
25
134
46
103
58
24
96
35
122
72
107
51
145
140
27
111
112
86
142
90
60
3
56
85
26
108
15
44
97
115
131
127
84
30
16
2
43
65
141
126
70
5
76
37
81
132
93
102
133
19
32
10
123
8
82
121
114
78
31
143
73
14
47
61
21
89
40
146
38
118
83
120
66
4
57
77
128
87
95
135
7
136
91
52
125
45
41
17
92
9
130
109
28
12
99
110
34
11

> <PUBCHEM_MMFF94_PARTIAL_CHARGES>
37
1 -0.68
11 0.27
12 0.41
13 -0.14
14 0.1
15 -0.15
16 -0.15
17 -0.15
19 -0.15
2 -0.81
20 -0.15
21 -0.15
22 -0.15
23 -0.3
24 0.26
26 -0.15
27 -0.15
28 0.28
29 0.14
3 -0.87
4 0.05
41 0.4
42 0.15
43 0.15
44 0.15
45 0.15
46 0.15
47 0.15
48 0.15
5 0.3
51 0.15
54 0.15
55 0.27
56 0.4
6 -0.71
7 0.37
8 0.27

> <PUBCHEM_EFFECTIVE_ROTOR_COUNT>
7.2

> <PUBCHEM_PHARMACOPHORE_FEATURES>
13
1 1 acceptor
1 1 donor
1 2 cation
1 3 cation
1 3 donor
1 4 cation
1 5 donor
1 6 acceptor
5 4 16 18 22 23 rings
5 5 6 25 26 29 rings
6 13 15 16 17 18 19 rings
6 14 20 21 25 26 27 rings
6 2 7 8 9 10 11 rings

> <PUBCHEM_HEAVY_ATOM_COUNT>
29

> <PUBCHEM_ATOM_DEF_STEREO_COUNT>
1

> <PUBCHEM_ATOM_UDEF_STEREO_COUNT>
0

> <PUBCHEM_BOND_DEF_STEREO_COUNT>
0

> <PUBCHEM_BOND_UDEF_STEREO_COUNT>
0

> <PUBCHEM_ISOTOPIC_ATOM_COUNT>
0

> <PUBCHEM_COMPONENT_COUNT>
1

> <PUBCHEM_CACTVS_TAUTO_COUNT>
2

> <PUBCHEM_CONFORMER_ID>
017D9A1E00000001

> <PUBCHEM_MMFF94_ENERGY>
60.0326

> <PUBCHEM_FEATURE_SELFOVERLAP>
66.155

> <PUBCHEM_SHAPE_FINGERPRINT>
11828532 37 17605552361432738131
12100795 323 17543632384133117739
12156800 1 14440471517167242251
12202916 173 18193246685906702090
12553582 1 18339655429584235452
12788726 201 17903642882609150466
13122387 1 18412265008333842686
13402501 40 17901382621704364121
1361 2 17547842410420483463
13617811 41 8755398985391433214
140371 6 18339073796565794168
14114206 34 17974577887890840374
14251757 5 17477510615651158646
14363568 33 17977694183269973746
14659021 117 17906160764347507834
14725015 67 18261376872018637171
16719943 64 16682045731133681470
19315092 285 16556464293544408303
19930381 70 18341046436569021879
20764821 26 18337404733508443722
20775530 9 18335704931296815708
23559900 14 18337940290171162817
3493558 16 15835102997331734713
4280585 95 18191006951173018840
445580 102 18264774439766966726
463206 1 18266457603222919240
469060 322 17769897394600242030
5265222 85 16754968675778052268
5309563 4 18340769363685382485
57527585 103 18116172024875180003
613672 6 18267284474589563900
9709674 26 18262229049201188313

> <PUBCHEM_SHAPE_MULTIPOLES>
566.03
8.06
6.79
1.62
1.98
4.37
-0.14
-4.71
0.47
-4.84
0.51
1.1
-1.47
1.68

> <PUBCHEM_SHAPE_SELFOVERLAP>
1241.691

> <PUBCHEM_SHAPE_VOLUME>
307.8

> <PUBCHEM_COORDINATE_TYPE>
2
5
10

$$$$
25008669
  -OEChem-05102415123D

 56 60  0     1  0  0  0  0  0999 V2000
   -2.4084   -3.0858   -1.8375 O   0  0  0  0  0  0  0  0  0  0  0  0
    0.3239    3.2182    0.0225 N   0  0  1  0  0  0  0  0  0  0  0  0
    3.2894    1.0803   -0.7464 N   0  0  0  0  0  0  0  0  0  0  0  0
   -3.8707   -0.9299   -0.6372 N   0  0  0  0  0  0  0  0  0  0  0  0
    2.6891   -4.1975    0.5949 N   0  0  0  0  0  0  0  0  0  0  0  0
    1.7802   -4.1809    1.5840 N   0  0  0  0  0  0  0  0  0  0  0  0
    2.5341    2.1049   -0.0579 C   0  0  2  0  0  0  0  0  0  0  0  0
    1.1049    2.1463   -0.6123 C   0  0  0  0  0  0  0  0  0  0  0  0
    3.2278    3.4568   -0.2247 C   0  0  0  0  0  0  0  0  0  0  0  0
    2.3680    4.5698    0.3643 C   0  0  0  0  0  0  0  0  0  0  0  0
    0.9463    4.5309   -0.1984 C   0  0  0  0  0  0  0  0  0  0  0  0
   -1.0513    3.2136   -0.4757 C   0  0  0  0  0  0  0  0  0  0  0  0
   -1.8667    2.1110    0.1355 C   0  0  0  0  0  0  0  0  0  0  0  0
    3.1872   -0.2688   -0.4581 C   0  0  0  0  0  0  0  0  0  0  0  0
   -2.4451    1.1454   -0.6932 C   0  0  0  0  0  0  0  0  0  0  0  0
   -3.1970    0.1351   -0.0829 C   0  0  0  0  0  0  0  0  0  0  0  0
   -2.0354    2.0657    1.5180 C   0  0  0  0  0  0  0  0  0  0  0  0
   -3.3827    0.0643    1.2995 C   0  0  0  0  0  0  0  0  0  0  0  0
   -2.7906    1.0492    2.1147 C   0  0  0  0  0  0  0  0  0  0  0  0
    2.3131   -0.6927    0.5506 C   0  0  0  0  0  0  0  0  0  0  0  0
    3.9546   -1.1877   -1.1763 C   0  0  0  0  0  0  0  0  0  0  0  0
   -4.1896   -1.0798    1.5544 C   0  0  0  0  0  0  0  0  0  0  0  0
   -4.4738   -1.6697    0.3444 C   0  0  0  0  0  0  0  0  0  0  0  0
   -3.9411   -1.2372   -2.0496 C   0  0  0  0  0  0  0  0  0  0  0  0
    2.2232   -2.0672    0.8268 C   0  0  0  0  0  0  0  0  0  0  0  0
    2.9988   -2.9608    0.0965 C   0  0  0  0  0  0  0  0  0  0  0  0
    3.8762   -2.5592   -0.9131 C   0  0  0  0  0  0  0  0  0  0  0  0
   -2.6637   -1.8910   -2.5651 C   0  0  0  0  0  0  0  0  0  0  0  0
    1.4993   -2.8833    1.7224 C   0  0  0  0  0  0  0  0  0  0  0  0
    2.5140    1.9125    1.0230 H   0  0  0  0  0  0  0  0  0  0  0  0
    1.1367    2.2894   -1.7022 H   0  0  0  0  0  0  0  0  0  0  0  0
    0.6144    1.1820   -0.4482 H   0  0  0  0  0  0  0  0  0  0  0  0
    3.4072    3.6632   -1.2882 H   0  0  0  0  0  0  0  0  0  0  0  0
    4.2109    3.4453    0.2611 H   0  0  0  0  0  0  0  0  0  0  0  0
    2.3345    4.4677    1.4565 H   0  0  0  0  0  0  0  0  0  0  0  0
    2.8246    5.5424    0.1485 H   0  0  0  0  0  0  0  0  0  0  0  0
    0.3633    5.3105    0.3069 H   0  0  0  0  0  0  0  0  0  0  0  0
    0.9652    4.7787   -1.2680 H   0  0  0  0  0  0  0  0  0  0  0  0
   -1.0777    3.1747   -1.5732 H   0  0  0  0  0  0  0  0  0  0  0  0
   -1.5582    4.1503   -0.2035 H   0  0  0  0  0  0  0  0  0  0  0  0
    3.8721    1.3529   -1.5306 H   0  0  0  0  0  0  0  0  0  0  0  0
   -2.3165    1.1789   -1.7701 H   0  0  0  0  0  0  0  0  0  0  0  0
   -1.5868    2.8240    2.1556 H   0  0  0  0  0  0  0  0  0  0  0  0
   -2.9148    1.0264    3.1935 H   0  0  0  0  0  0  0  0  0  0  0  0
    1.7018   -0.0234    1.1429 H   0  0  0  0  0  0  0  0  0  0  0  0
    4.6303   -0.8464   -1.9580 H   0  0  0  0  0  0  0  0  0  0  0  0
   -4.5265   -1.4344    2.5188 H   0  0  0  0  0  0  0  0  0  0  0  0
   -5.0522   -2.5529    0.1086 H   0  0  0  0  0  0  0  0  0  0  0  0
   -4.1572   -0.3104   -2.5912 H   0  0  0  0  0  0  0  0  0  0  0  0
   -4.7920   -1.9135   -2.1939 H   0  0  0  0  0  0  0  0  0  0  0  0
    4.4714   -3.2745   -1.4698 H   0  0  0  0  0  0  0  0  0  0  0  0
   -1.7991   -1.2299   -2.4511 H   0  0  0  0  0  0  0  0  0  0  0  0
   -2.7729   -2.1446   -3.6242 H   0  0  0  0  0  0  0  0  0  0  0  0
    0.7777   -2.5842    2.4696 H   0  0  0  0  0  0  0  0  0  0  0  0
    3.0622   -5.0924    0.3037 H   0  0  0  0  0  0  0  0  0  0  0  0
   -1.5911   -3.4699   -2.1979 H   0  0  0  0  0  0  0  0  0  0  0  0
  1 28  1  0  0  0  0
  1 56  1  0  0  0  0
  2  8  1  0  0  0  0
  2 11  1  0  0  0  0
  2 12  1  0  0  0  0
  3  7  1  0  0  0  0
  3 14  1  0  0  0  0
  3 41  1  0  0  0  0
  4 16  1  0  0  0  0
  4 23  1  0  0  0  0
  4 24  1  0  0  0  0
  5  6  1  0  0  0  0
  5 26  1  0  0  0  0
  5 55  1  0  0  0  0
  6 29  2  0  0  0  0
  7  8  1  0  0  0  0
  7  9  1  0  0  0  0
  7 30  1  0  0  0  0
  8 31  1  0  0  0  0
  8 32  1  0  0  0  0
  9 10  1  0  0  0  0
  9 33  1  0  0  0  0
  9 34  1  0  0  0  0
 10 11  1  0  0  0  0
 10 35  1  0  0  0  0
 10 36  1  0  0  0  0
 11 37  1  0  0  0  0
 11 38  1  0  0  0  0
 12 13  1  0  0  0  0
 12 39  1  0  0  0  0
 12 40  1  0  0  0  0
 13 15  2  0  0  0  0
 13 17  1  0  0  0  0
 14 20  2  0  0  0  0
 14 21  1  0  0  0  0
 15 16  1  0  0  0  0
 15 42  1  0  0  0  0
 16 18  2  0  0  0  0
 17 19  2  0  0  0  0
 17 43  1  0  0  0  0
 18 19  1  0  0  0  0
 18 22  1  0  0  0  0
 19 44  1  0  0  0  0
 20 25  1  0  0  0  0
 20 45  1  0  0  0  0
 21 27  2  0  0  0  0
 21 46  1  0  0  0  0
 22 23  2  0  0  0  0
 22 47  1  0  0  0  0
 23 48  1  0  0  0  0
 24 28  1  0  0  0  0
 24 49  1  0  0  0  0
 24 50  1  0  0  0  0
 25 26  2  0  0  0  0
 25 29  1  0  0  0  0
 26 27  1  0  0  0  0
 27 51  1  0  0  0  0
 28 52  1  0  0  0  0
 28 53  1  0  0  0  0
 29 54  1  0  0  0  0
M  END
> <PUBCHEM_COMPOUND_CID>
25008669

> <PUBCHEM_CONFORMER_RMSD>
1.2

> <PUBCHEM_CONFORMER_DIVERSEORDER>
1
91
137
79
100
115
21
70
62
55
142
33
30
13
9
71
109
77
51
16
101
128
113
12
68
66
95
80
131
145
58
108
120
39
88
4
87
127
76
29
140
61
3
75
148
104
136
106
53
99
141
124
89
67
129
83
122
147
84
135
85
25
35
81
105
65
28
7
112
48
8
43
116
34
121
19
64
40
110
118
146
74
42
36
54
52
63
32
111
96
82
18
130
44
2
47
27
6
73
90
57
98
59
94
20
126
15
143
45
144
17
41
78
119
56
38
14
114
125
102
31
49
97
50
117
134
11
26
107
46
23
92
132
138
22
10
123
139
72
103
93
24
86
37
69
133
60
5

> <PUBCHEM_MMFF94_PARTIAL_CHARGES>
37
1 -0.68
11 0.27
12 0.41
13 -0.14
14 0.1
15 -0.15
16 -0.15
17 -0.15
19 -0.15
2 -0.81
20 -0.15
21 -0.15
22 -0.15
23 -0.3
24 0.26
26 -0.15
27 -0.15
28 0.28
29 0.14
3 -0.87
4 0.05
41 0.4
42 0.15
43 0.15
44 0.15
45 0.15
46 0.15
47 0.15
48 0.15
5 0.3
51 0.15
54 0.15
55 0.27
56 0.4
6 -0.71
7 0.37
8 0.27

> <PUBCHEM_EFFECTIVE_ROTOR_COUNT>
7.2

> <PUBCHEM_PHARMACOPHORE_FEATURES>
13
1 1 acceptor
1 1 donor
1 2 cation
1 3 cation
1 3 donor
1 4 cation
1 5 donor
1 6 acceptor
5 4 16 18 22 23 rings
5 5 6 25 26 29 rings
6 13 15 16 17 18 19 rings
6 14 20 21 25 26 27 rings
6 2 7 8 9 10 11 rings

> <PUBCHEM_HEAVY_ATOM_COUNT>
29

> <PUBCHEM_ATOM_DEF_STEREO_COUNT>
1

> <PUBCHEM_ATOM_UDEF_STEREO_COUNT>
0

> <PUBCHEM_BOND_DEF_STEREO_COUNT>
0

> <PUBCHEM_BOND_UDEF_STEREO_COUNT>
0

> <PUBCHEM_ISOTOPIC_ATOM_COUNT>
0

> <PUBCHEM_COMPONENT_COUNT>
1

> <PUBCHEM_CACTVS_TAUTO_COUNT>
2

> <PUBCHEM_CONFORMER_ID>
017D9A1D00000001

> <PUBCHEM_MMFF94_ENERGY>
60.5082

> <PUBCHEM_FEATURE_SELFOVERLAP>
66.155

> <PUBCHEM_SHAPE_FINGERPRINT>
10462674 296 18201430346747618886
10928967 22 18268444463694494422
114674 6 18335991981447220160
12156800 1 14884161803857746613
12539773 59 18059310759659162843
12553582 1 18119816811231269688
12788726 201 17616250282488247520
1361 2 18048044253061957435
14279260 333 16959587828231159026
14659021 117 17542199287096559138
14844126 61 17398103860181121504
150020 26 16127270887040401479
152267 14 18049999991973852826
15274700 242 14505670143103296051
15403338 16 17463705177875602139
17138139 8 16907482470031345029
17809404 112 18049125965806934594
19026451 147 18194936716893794783
19930381 70 18262808470343354923
20028762 73 18055635264234216828
20511986 3 17702100477409426725
20764821 26 17975711797969757306
20775438 99 17903312071491298221
20775530 9 18340769234614830659
21133410 221 11552951393721784099
21133410 38 17549855586162690179
229767 44 15737956621779625602
44880168 125 17198826224752447886
463206 1 18190478081294143186
5265222 85 16104460140455291134
5309563 4 18337121098189375043
66674814 147 17545584008640593085
86090 222 17606423161239563739

> <PUBCHEM_SHAPE_MULTIPOLES>
566.03
8.71
6.61
1.86
3.56
2.34
0.29
-4.8
0.96
-6.8
-0.69
1.95
-1.5
-1.88

> <PUBCHEM_SHAPE_SELFOVERLAP>
1241.784

> <PUBCHEM_SHAPE_VOLUME>
307.7

> <PUBCHEM_COORDINATE_TYPE>
2
5
10

$$$$
25010427
  -OEChem-05102415123D

 59 62  0     1  0  0  0  0  0999 V2000
    1.2557   -3.3646    0.4282 O   0  0  0  0  0  0  0  0  0  0  0  0
    2.4517   -1.8956    2.8025 O   0  0  0  0  0  0  0  0  0  0  0  0
   -3.5072   -0.2714    0.1374 N   0  0  2  0  0  0  0  0  0  0  0  0
   -1.5819    2.8842    0.7077 N   0  0  0  0  0  0  0  0  0  0  0  0
    3.5634    2.7916   -1.1719 N   0  0  0  0  0  0  0  0  0  0  0  0
    3.5327    1.8822   -2.1603 N   0  0  0  0  0  0  0  0  0  0  0  0
    3.4276   -1.5125    0.7230 N   0  0  0  0  0  0  0  0  0  0  0  0
   -2.5956    2.0328    0.1206 C   0  0  2  0  0  0  0  0  0  0  0  0
   -3.9826    2.5979    0.4292 C   0  0  0  0  0  0  0  0  0  0  0  0
   -2.4522    0.6057    0.6659 C   0  0  0  0  0  0  0  0  0  0  0  0
   -5.0670    1.6387   -0.0489 C   0  0  0  0  0  0  0  0  0  0  0  0
   -4.8416    0.2280    0.4963 C   0  0  0  0  0  0  0  0  0  0  0  0
   -3.3259   -1.6399    0.6215 C   0  0  0  0  0  0  0  0  0  0  0  0
   -2.2183   -2.3512   -0.1093 C   0  0  0  0  0  0  0  0  0  0  0  0
   -0.2656    2.9104    0.2831 C   0  0  0  0  0  0  0  0  0  0  0  0
    0.1346    2.0778   -0.7696 C   0  0  0  0  0  0  0  0  0  0  0  0
   -0.9790   -2.5299    0.5055 C   0  0  0  0  0  0  0  0  0  0  0  0
    0.6438    3.7658    0.9078 C   0  0  0  0  0  0  0  0  0  0  0  0
   -2.4317   -2.8316   -1.4013 C   0  0  0  0  0  0  0  0  0  0  0  0
    1.4755    2.1207   -1.1865 C   0  0  0  0  0  0  0  0  0  0  0  0
    2.3604    2.9818   -0.5470 C   0  0  0  0  0  0  0  0  0  0  0  0
    1.9820    3.8198    0.5042 C   0  0  0  0  0  0  0  0  0  0  0  0
    0.0468   -3.1893   -0.1716 C   0  0  0  0  0  0  0  0  0  0  0  0
   -1.4058   -3.4909   -2.0785 C   0  0  0  0  0  0  0  0  0  0  0  0
   -0.1667   -3.6697   -1.4636 C   0  0  0  0  0  0  0  0  0  0  0  0
    2.2611    1.4763   -2.1661 C   0  0  0  0  0  0  0  0  0  0  0  0
    2.4012   -3.4135   -0.4210 C   0  0  0  0  0  0  0  0  0  0  0  0
    3.6089   -2.8843    0.3305 C   0  0  0  0  0  0  0  0  0  0  0  0
    2.8615   -1.1322    1.9320 C   0  0  0  0  0  0  0  0  0  0  0  0
    2.8141    0.3629    2.1002 C   0  0  0  0  0  0  0  0  0  0  0  0
   -2.5130    2.0284   -0.9744 H   0  0  0  0  0  0  0  0  0  0  0  0
   -4.0947    2.7599    1.5095 H   0  0  0  0  0  0  0  0  0  0  0  0
   -4.1114    3.5770   -0.0478 H   0  0  0  0  0  0  0  0  0  0  0  0
   -2.4838    0.6255    1.7650 H   0  0  0  0  0  0  0  0  0  0  0  0
   -1.4678    0.2136    0.3970 H   0  0  0  0  0  0  0  0  0  0  0  0
   -5.0748    1.6124   -1.1460 H   0  0  0  0  0  0  0  0  0  0  0  0
   -6.0499    2.0051    0.2683 H   0  0  0  0  0  0  0  0  0  0  0  0
   -4.9790    0.2261    1.5858 H   0  0  0  0  0  0  0  0  0  0  0  0
   -5.6124   -0.4248    0.0689 H   0  0  0  0  0  0  0  0  0  0  0  0
   -4.2384   -2.2290    0.4521 H   0  0  0  0  0  0  0  0  0  0  0  0
   -3.1640   -1.6693    1.7078 H   0  0  0  0  0  0  0  0  0  0  0  0
   -1.8269    3.4381    1.5213 H   0  0  0  0  0  0  0  0  0  0  0  0
   -0.5299    1.4024   -1.2936 H   0  0  0  0  0  0  0  0  0  0  0  0
   -0.8041   -2.1577    1.5121 H   0  0  0  0  0  0  0  0  0  0  0  0
    0.3212    4.4082    1.7248 H   0  0  0  0  0  0  0  0  0  0  0  0
   -3.3931   -2.6996   -1.8905 H   0  0  0  0  0  0  0  0  0  0  0  0
    2.6900    4.4829    0.9885 H   0  0  0  0  0  0  0  0  0  0  0  0
   -1.5745   -3.8704   -3.0821 H   0  0  0  0  0  0  0  0  0  0  0  0
    0.5950   -4.2132   -2.0147 H   0  0  0  0  0  0  0  0  0  0  0  0
    1.9579    0.7261   -2.8828 H   0  0  0  0  0  0  0  0  0  0  0  0
    4.4434    3.2501   -0.9715 H   0  0  0  0  0  0  0  0  0  0  0  0
    2.2663   -2.7929   -1.3169 H   0  0  0  0  0  0  0  0  0  0  0  0
    2.5800   -4.4522   -0.7207 H   0  0  0  0  0  0  0  0  0  0  0  0
    4.5029   -2.9340   -0.2986 H   0  0  0  0  0  0  0  0  0  0  0  0
    3.7819   -3.4824    1.2319 H   0  0  0  0  0  0  0  0  0  0  0  0
    3.7177   -0.7954    0.0645 H   0  0  0  0  0  0  0  0  0  0  0  0
    1.8251    0.7196    1.8034 H   0  0  0  0  0  0  0  0  0  0  0  0
    2.9878    0.6123    3.1508 H   0  0  0  0  0  0  0  0  0  0  0  0
    3.5797    0.8609    1.4998 H   0  0  0  0  0  0  0  0  0  0  0  0
  1 23  1  0  0  0  0
  1 27  1  0  0  0  0
  2 29  2  0  0  0  0
  3 10  1  0  0  0  0
  3 12  1  0  0  0  0
  3 13  1  0  0  0  0
  4  8  1  0  0  0  0
  4 15  1  0  0  0  0
  4 42  1  0  0  0  0
  5  6  1  0  0  0  0
  5 21  1  0  0  0  0
  5 51  1  0  0  0  0
  6 26  2  0  0  0  0
  7 28  1  0  0  0  0
  7 29  1  0  0  0  0
  7 56  1  0  0  0  0
  8  9  1  0  0  0  0
  8 10  1  0  0  0  0
  8 31  1  0  0  0  0
  9 11  1  0  0  0  0
  9 32  1  0  0  0  0
  9 33  1  0  0  0  0
 10 34  1  0  0  0  0
 10 35  1  0  0  0  0
 11 12  1  0  0  0  0
 11 36  1  0  0  0  0
 11 37  1  0  0  0  0
 12 38  1  0  0  0  0
 12 39  1  0  0  0  0
 13 14  1  0  0  0  0
 13 40  1  0  0  0  0
 13 41  1  0  0  0  0
 14 17  2  0  0  0  0
 14 19  1  0  0  0  0
 15 16  2  0  0  0  0
 15 18  1  0  0  0  0
 16 20  1  0  0  0  0
 16 43  1  0  0  0  0
 17 23  1  0  0  0  0
 17 44  1  0  0  0  0
 18 22  2  0  0  0  0
 18 45  1  0  0  0  0
 19 24  2  0  0  0  0
 19 46  1  0  0  0  0
 20 21  2  0  0  0  0
 20 26  1  0  0  0  0
 21 22  1  0  0  0  0
 22 47  1  0  0  0  0
 23 25  2  0  0  0  0
 24 25  1  0  0  0  0
 24 48  1  0  0  0  0
 25 49  1  0  0  0  0
 26 50  1  0  0  0  0
 27 28  1  0  0  0  0
 27 52  1  0  0  0  0
 27 53  1  0  0  0  0
 28 54  1  0  0  0  0
 28 55  1  0  0  0  0
 29 30  1  0  0  0  0
 30 57  1  0  0  0  0
 30 58  1  0  0  0  0
 30 59  1  0  0  0  0
M  END
> <PUBCHEM_COMPOUND_CID>
25010427

> <PUBCHEM_CONFORMER_RMSD>
1.4

> <PUBCHEM_CONFORMER_DIVERSEORDER>
1
15
31
139
69
56
173
140
5
84
114
119
106
131
137
53
125
171
43
40
26
138
101
29
148
164
23
90
130
47
27
55
92
144
97
50
102
167
163
39
100
110
166
152
59
94
81
105
64
89
30
38
129
17
165
120
149
147
113
172
6
3
161
19
75
159
63
20
77
51
58
54
78
33
86
127
60
25
42
71
13
68
128
151
46
146
79
72
154
115
67
93
8
150
7
141
122
12
103
35
108
174
82
162
169
132
4
9
135
83
2
99
104
112
37
124
80
96
36
24
32
73
34
136
22
134
118
74
48
111
107
21
143
61
65
156
76
41
170
10
66
52
168
126
160
85
14
16
95
18
157
49
121
11
45
70
98
62
158
88
28
145
142
123
91
133
57
117
153
87
44
116
109
155

> <PUBCHEM_MMFF94_PARTIAL_CHARGES>
38
1 -0.36
10 0.27
12 0.27
13 0.41
14 -0.14
15 0.1
16 -0.15
17 -0.15
18 -0.15
19 -0.15
2 -0.57
21 -0.15
22 -0.15
23 0.08
24 -0.15
25 -0.15
26 0.14
27 0.28
28 0.3
29 0.57
3 -0.81
30 0.06
4 -0.87
42 0.4
43 0.15
44 0.15
45 0.15
46 0.15
47 0.15
48 0.15
49 0.15
5 0.3
50 0.15
51 0.27
56 0.37
6 -0.71
7 -0.73
8 0.37

> <PUBCHEM_EFFECTIVE_ROTOR_COUNT>
10.2

> <PUBCHEM_PHARMACOPHORE_FEATURES>
12
1 1 acceptor
1 2 acceptor
1 3 cation
1 4 cation
1 4 donor
1 5 donor
1 6 acceptor
1 7 donor
5 5 6 20 21 26 rings
6 14 17 19 23 24 25 rings
6 15 16 18 20 21 22 rings
6 3 8 9 10 11 12 rings

> <PUBCHEM_HEAVY_ATOM_COUNT>
30

> <PUBCHEM_ATOM_DEF_STEREO_COUNT>
0

> <PUBCHEM_ATOM_UDEF_STEREO_COUNT>
1

> <PUBCHEM_BOND_DEF_STEREO_COUNT>
0

> <PUBCHEM_BOND_UDEF_STEREO_COUNT>
0

> <PUBCHEM_ISOTOPIC_ATOM_COUNT>
0

> <PUBCHEM_COMPONENT_COUNT>
1

> <PUBCHEM_CACTVS_TAUTO_COUNT>
4

> <PUBCHEM_CONFORMER_ID>
017DA0FB00000001

> <PUBCHEM_MMFF94_ENERGY>
70.7844

> <PUBCHEM_FEATURE_SELFOVERLAP>
60.988

> <PUBCHEM_SHAPE_FINGERPRINT>
11513181 2 18131062719287188678
11828532 37 14080895546062838138
13122387 1 18338517439164742666
13402501 40 17766553551954096283
140371 6 17906742406114795241
14114206 34 17472139947746302077
144659 178 18052544265970122936
14659021 117 17331400281927521832
14725015 67 17549545553293487855
15001296 14 18334869307076420404
15297060 5 18058456413280814874
15840311 113 16406478478567217457
15961568 22 17834964066081011863
17627616 140 18337117846820186318
17977149 70 17764603014749002638
19311894 1 17114381997278941658
20764821 26 18340772537534397631
22113638 7 18339917100429528815
25019877 29 17273111519943645959
3298306 158 18338808891957208661
463206 1 18262521502130372536
474144 1 18259706692127715128
550186 83 17827065213180208690
57091435 65 18336554922652353810
58250162 1 18196933490354817994
6287921 2 17766848225623257201

> <PUBCHEM_SHAPE_MULTIPOLES>
580.74
7.66
6.92
1.93
4.75
1.39
0.02
-2.21
0.87
-2.17
-1.21
-2.08
0.6
-2.62

> <PUBCHEM_SHAPE_SELFOVERLAP>
1240.347

> <PUBCHEM_SHAPE_VOLUME>
322.7

> <PUBCHEM_COORDINATE_TYPE>
2
5
10

$$$$
25008499
  -OEChem-05102415123D

 67 71  0     1  0  0  0  0  0999 V2000
    5.0614   -0.2324    0.6350 O   0  0  0  0  0  0  0  0  0  0  0  0
    3.0723    0.0027   -0.5086 O   0  0  0  0  0  0  0  0  0  0  0  0
   -3.5910   -2.0083    0.2158 N   0  0  2  0  0  0  0  0  0  0  0  0
   -4.1174    1.6924    0.3468 N   0  0  0  0  0  0  0  0  0  0  0  0
    2.6415   -2.7643   -0.3423 N   0  0  0  0  0  0  0  0  0  0  0  0
    0.4086    4.6728   -0.4574 N   0  0  0  0  0  0  0  0  0  0  0  0
    1.2042    3.8681   -1.1815 N   0  0  0  0  0  0  0  0  0  0  0  0
   -4.2223    0.3528   -0.1931 C   0  0  1  0  0  0  0  0  0  0  0  0
   -3.4520   -0.6276    0.7014 C   0  0  0  0  0  0  0  0  0  0  0  0
   -5.6952   -0.0452   -0.2967 C   0  0  0  0  0  0  0  0  0  0  0  0
   -5.8242   -1.5043   -0.7199 C   0  0  0  0  0  0  0  0  0  0  0  0
   -5.0009   -2.4209    0.1859 C   0  0  0  0  0  0  0  0  0  0  0  0
   -2.8075   -2.9242    1.0446 C   0  0  0  0  0  0  0  0  0  0  0  0
   -1.3372   -2.8468    0.7301 C   0  0  0  0  0  0  0  0  0  0  0  0
   -3.0051    2.4982    0.1824 C   0  0  0  0  0  0  0  0  0  0  0  0
   -0.8466   -3.4588   -0.4290 C   0  0  0  0  0  0  0  0  0  0  0  0
   -0.4815   -2.1664    1.5942 C   0  0  0  0  0  0  0  0  0  0  0  0
    0.5304   -3.3804   -0.7175 C   0  0  0  0  0  0  0  0  0  0  0  0
    1.3642   -2.6916    0.1661 C   0  0  0  0  0  0  0  0  0  0  0  0
    0.8879   -2.0751    1.3285 C   0  0  0  0  0  0  0  0  0  0  0  0
   -1.9069    2.0161   -0.5410 C   0  0  0  0  0  0  0  0  0  0  0  0
   -2.9929    3.7790    0.7377 C   0  0  0  0  0  0  0  0  0  0  0  0
    1.3517   -3.8684   -1.7721 C   0  0  0  0  0  0  0  0  0  0  0  0
   -0.7878    2.8507   -0.6975 C   0  0  0  0  0  0  0  0  0  0  0  0
    2.6440   -3.4734   -1.5134 C   0  0  0  0  0  0  0  0  0  0  0  0
    3.8209   -2.1811    0.2604 C   0  0  0  0  0  0  0  0  0  0  0  0
   -1.8862    4.6217    0.5905 C   0  0  0  0  0  0  0  0  0  0  0  0
   -0.8020    4.1219   -0.1341 C   0  0  0  0  0  0  0  0  0  0  0  0
    5.2869    1.1773    0.5339 C   0  0  0  0  0  0  0  0  0  0  0  0
    0.4731    2.7605   -1.3254 C   0  0  0  0  0  0  0  0  0  0  0  0
    3.9050   -0.6859    0.0650 C   0  0  0  0  0  0  0  0  0  0  0  0
    4.1352    1.9048    1.2262 C   0  0  0  0  0  0  0  0  0  0  0  0
    6.6112    1.4825    1.2303 C   0  0  0  0  0  0  0  0  0  0  0  0
    5.3583    1.5537   -0.9453 C   0  0  0  0  0  0  0  0  0  0  0  0
   -3.8312    0.3151   -1.2184 H   0  0  0  0  0  0  0  0  0  0  0  0
   -3.8145   -0.5459    1.7364 H   0  0  0  0  0  0  0  0  0  0  0  0
   -2.3972   -0.3420    0.7248 H   0  0  0  0  0  0  0  0  0  0  0  0
   -6.1953    0.0956    0.6707 H   0  0  0  0  0  0  0  0  0  0  0  0
   -6.2163    0.6006   -1.0138 H   0  0  0  0  0  0  0  0  0  0  0  0
   -5.4885   -1.6151   -1.7588 H   0  0  0  0  0  0  0  0  0  0  0  0
   -6.8775   -1.8051   -0.6913 H   0  0  0  0  0  0  0  0  0  0  0  0
   -5.4285   -2.4227    1.1972 H   0  0  0  0  0  0  0  0  0  0  0  0
   -5.0833   -3.4423   -0.2053 H   0  0  0  0  0  0  0  0  0  0  0  0
   -3.1114   -3.9639    0.8567 H   0  0  0  0  0  0  0  0  0  0  0  0
   -2.9917   -2.7624    2.1156 H   0  0  0  0  0  0  0  0  0  0  0  0
   -4.8657    2.0354    0.9394 H   0  0  0  0  0  0  0  0  0  0  0  0
   -1.5146   -3.9889   -1.1026 H   0  0  0  0  0  0  0  0  0  0  0  0
   -0.8699   -1.6924    2.4929 H   0  0  0  0  0  0  0  0  0  0  0  0
    1.5464   -1.5419    2.0058 H   0  0  0  0  0  0  0  0  0  0  0  0
   -1.8668    1.0358   -0.9990 H   0  0  0  0  0  0  0  0  0  0  0  0
   -3.8523    4.1429    1.2974 H   0  0  0  0  0  0  0  0  0  0  0  0
    1.0326   -4.4456   -2.6291 H   0  0  0  0  0  0  0  0  0  0  0  0
    3.5573   -3.6395   -2.0689 H   0  0  0  0  0  0  0  0  0  0  0  0
    3.8014   -2.4152    1.3296 H   0  0  0  0  0  0  0  0  0  0  0  0
    4.7005   -2.6504   -0.1932 H   0  0  0  0  0  0  0  0  0  0  0  0
   -1.8748    5.6169    1.0209 H   0  0  0  0  0  0  0  0  0  0  0  0
    0.8889    1.9316   -1.8807 H   0  0  0  0  0  0  0  0  0  0  0  0
    0.7535    5.5932   -0.2149 H   0  0  0  0  0  0  0  0  0  0  0  0
    4.4011    2.9524    1.4117 H   0  0  0  0  0  0  0  0  0  0  0  0
    3.9028    1.4417    2.1922 H   0  0  0  0  0  0  0  0  0  0  0  0
    3.2058    1.9353    0.6524 H   0  0  0  0  0  0  0  0  0  0  0  0
    6.5790    1.1694    2.2802 H   0  0  0  0  0  0  0  0  0  0  0  0
    6.8548    2.5493    1.1944 H   0  0  0  0  0  0  0  0  0  0  0  0
    7.4320    0.9237    0.7659 H   0  0  0  0  0  0  0  0  0  0  0  0
    5.9896    0.8489   -1.4989 H   0  0  0  0  0  0  0  0  0  0  0  0
    4.3908    1.5852   -1.4529 H   0  0  0  0  0  0  0  0  0  0  0  0
    5.7882    2.5553   -1.0650 H   0  0  0  0  0  0  0  0  0  0  0  0
  1 29  1  0  0  0  0
  1 31  1  0  0  0  0
  2 31  2  0  0  0  0
  3  9  1  0  0  0  0
  3 12  1  0  0  0  0
  3 13  1  0  0  0  0
  4  8  1  0  0  0  0
  4 15  1  0  0  0  0
  4 46  1  0  0  0  0
  5 19  1  0  0  0  0
  5 25  1  0  0  0  0
  5 26  1  0  0  0  0
  6  7  1  0  0  0  0
  6 28  1  0  0  0  0
  6 58  1  0  0  0  0
  7 30  2  0  0  0  0
  8  9  1  0  0  0  0
  8 10  1  0  0  0  0
  8 35  1  0  0  0  0
  9 36  1  0  0  0  0
  9 37  1  0  0  0  0
 10 11  1  0  0  0  0
 10 38  1  0  0  0  0
 10 39  1  0  0  0  0
 11 12  1  0  0  0  0
 11 40  1  0  0  0  0
 11 41  1  0  0  0  0
 12 42  1  0  0  0  0
 12 43  1  0  0  0  0
 13 14  1  0  0  0  0
 13 44  1  0  0  0  0
 13 45  1  0  0  0  0
 14 16  2  0  0  0  0
 14 17  1  0  0  0  0
 15 21  2  0  0  0  0
 15 22  1  0  0  0  0
 16 18  1  0  0  0  0
 16 47  1  0  0  0  0
 17 20  2  0  0  0  0
 17 48  1  0  0  0  0
 18 19  2  0  0  0  0
 18 23  1  0  0  0  0
 19 20  1  0  0  0  0
 20 49  1  0  0  0  0
 21 24  1  0  0  0  0
 21 50  1  0  0  0  0
 22 27  2  0  0  0  0
 22 51  1  0  0  0  0
 23 25  2  0  0  0  0
 23 52  1  0  0  0  0
 24 28  2  0  0  0  0
 24 30  1  0  0  0  0
 25 53  1  0  0  0  0
 26 31  1  0  0  0  0
 26 54  1  0  0  0  0
 26 55  1  0  0  0  0
 27 28  1  0  0  0  0
 27 56  1  0  0  0  0
 29 32  1  0  0  0  0
 29 33  1  0  0  0  0
 29 34  1  0  0  0  0
 30 57  1  0  0  0  0
 32 59  1  0  0  0  0
 32 60  1  0  0  0  0
 32 61  1  0  0  0  0
 33 62  1  0  0  0  0
 33 63  1  0  0  0  0
 33 64  1  0  0  0  0
 34 65  1  0  0  0  0
 34 66  1  0  0  0  0
 34 67  1  0  0  0  0
M  END
> <PUBCHEM_COMPOUND_CID>
25008499

> <PUBCHEM_CONFORMER_RMSD>
1.6

> <PUBCHEM_CONFORMER_DIVERSEORDER>
1
12
48
65
61
21
10
30
54
24
6
28
34
35
46
42
59
14
33
31
26
55
58
45
51
67
64
18
44
16
20
41
13
63
23
56
17
52
4
22
66
50
7
57
43
32
60
19
27
37
62
5
49
36
38
25
9
3
53
15
8
2
47
29
39
40
11

> <PUBCHEM_MMFF94_PARTIAL_CHARGES>
38
1 -0.43
12 0.27
13 0.41
14 -0.14
15 0.1
16 -0.15
17 -0.15
19 -0.15
2 -0.57
20 -0.15
21 -0.15
22 -0.15
23 -0.15
25 -0.3
26 0.32
27 -0.15
28 -0.15
29 0.28
3 -0.81
30 0.14
31 0.66
4 -0.87
46 0.4
47 0.15
48 0.15
49 0.15
5 0.05
50 0.15
51 0.15
52 0.15
53 0.15
56 0.15
57 0.15
58 0.27
6 0.3
7 -0.71
8 0.37
9 0.27

> <PUBCHEM_EFFECTIVE_ROTOR_COUNT>
9.2

> <PUBCHEM_PHARMACOPHORE_FEATURES>
13
1 2 acceptor
1 3 cation
1 4 cation
1 4 donor
1 5 cation
1 6 donor
1 7 acceptor
4 29 32 33 34 hydrophobe
5 5 18 19 23 25 rings
5 6 7 24 28 30 rings
6 14 16 17 18 19 20 rings
6 15 21 22 24 27 28 rings
6 3 8 9 10 11 12 rings

> <PUBCHEM_HEAVY_ATOM_COUNT>
34

> <PUBCHEM_ATOM_DEF_STEREO_COUNT>
0

> <PUBCHEM_ATOM_UDEF_STEREO_COUNT>
1

> <PUBCHEM_BOND_DEF_STEREO_COUNT>
0

> <PUBCHEM_BOND_UDEF_STEREO_COUNT>
0

> <PUBCHEM_ISOTOPIC_ATOM_COUNT>
0

> <PUBCHEM_COMPONENT_COUNT>
1

> <PUBCHEM_CACTVS_TAUTO_COUNT>
2

> <PUBCHEM_CONFORMER_ID>
017D997300000001

> <PUBCHEM_MMFF94_ENERGY>
78.9214

> <PUBCHEM_FEATURE_SELFOVERLAP>
66.154

> <PUBCHEM_SHAPE_FINGERPRINT>
10006869 2 18263626446944531682
11513181 2 18200597990569359359
12788726 201 18119267279172594484
13402501 40 18410852196053367306
13561361 72 18336539431158809440
13642711 20 17058905854336250882
140371 6 18336556000820773467
14143925 63 18342740762459659332
14251764 38 18267022756552579378
14394314 77 18411422787561385897
144659 178 18408892849127031660
151778 21 15960057966764219209
15320467 1 18338517550765463505
15419008 145 18263908983490172298
15721738 15 15232987185103563500
15961568 22 18410009948603394230
15968369 153 18272079518382548750
16067690 210 18113896018272127139
19611394 137 17970920096506433107
20764821 26 18049172347222373325
21133410 38 18129669582810837657
21344244 246 17618212254500678615
21792938 131 18124312968619546795
21795232 40 18115570639206842077
21859007 373 18343298155458855938
22113638 7 18122905601312649446
22121540 332 18271529711308992550
25019877 29 17488465341930152502
325973 47 18266181827715081833
373842 8 18335702809836036032
474144 1 17751373995490458964
50150288 127 16198480723263988960
5047190 48 18410860953898041060
50677037 204 18341054021676185913
5171179 24 18054798290882835758
5776283 40 17835543534874260318
6004065 56 18268138946039369975
6036956 94 18260555540985796349
6287921 2 18048888394371422620
653340 110 18338796719687705688

> <PUBCHEM_SHAPE_MULTIPOLES>
663.06
12.13
7.56
1.31
5.42
4.3
-0.07
1.1
1.71
-1.54
-1.33
0.77
-0.46
0.91

> <PUBCHEM_SHAPE_SELFOVERLAP>
1442.872

> <PUBCHEM_SHAPE_VOLUME>
364.2

> <PUBCHEM_COORDINATE_TYPE>
2
5
10

$$$$
25010428
  -OEChem-05102415123D

 57 60  0     1  0  0  0  0  0999 V2000
    1.1921   -3.4569    0.2309 O   0  0  0  0  0  0  0  0  0  0  0  0
    3.6226   -2.0689   -0.1132 O   0  0  0  0  0  0  0  0  0  0  0  0
    5.1480   -1.5086    2.1634 O   0  0  0  0  0  0  0  0  0  0  0  0
   -3.4958   -0.2381    0.2551 N   0  0  2  0  0  0  0  0  0  0  0  0
   -1.4674    2.8433    0.8724 N   0  0  0  0  0  0  0  0  0  0  0  0
    3.5959    2.7006   -1.2149 N   0  0  0  0  0  0  0  0  0  0  0  0
    3.5028    1.8333   -2.2366 N   0  0  0  0  0  0  0  0  0  0  0  0
   -2.5254    2.0417    0.2931 C   0  0  2  0  0  0  0  0  0  0  0  0
   -3.8839    2.6278    0.6795 C   0  0  0  0  0  0  0  0  0  0  0  0
   -2.3982    0.5905    0.7751 C   0  0  0  0  0  0  0  0  0  0  0  0
   -5.0110    1.7159    0.2077 C   0  0  0  0  0  0  0  0  0  0  0  0
   -4.8015    0.2790    0.6869 C   0  0  0  0  0  0  0  0  0  0  0  0
   -3.3315   -1.6292    0.6767 C   0  0  0  0  0  0  0  0  0  0  0  0
   -2.2725   -2.3372   -0.1257 C   0  0  0  0  0  0  0  0  0  0  0  0
   -0.1686    2.8543    0.3965 C   0  0  0  0  0  0  0  0  0  0  0  0
    0.1681    2.0557   -0.7037 C   0  0  0  0  0  0  0  0  0  0  0  0
   -1.0152   -2.5713    0.4312 C   0  0  0  0  0  0  0  0  0  0  0  0
   -2.5489   -2.7592   -1.4261 C   0  0  0  0  0  0  0  0  0  0  0  0
    0.7868    3.6610    1.0176 C   0  0  0  0  0  0  0  0  0  0  0  0
    1.4923    2.0825   -1.1721 C   0  0  0  0  0  0  0  0  0  0  0  0
   -0.0344   -3.2277   -0.3124 C   0  0  0  0  0  0  0  0  0  0  0  0
    2.4238    2.8948   -0.5350 C   0  0  0  0  0  0  0  0  0  0  0  0
    2.1090    3.6984    0.5630 C   0  0  0  0  0  0  0  0  0  0  0  0
   -1.5680   -3.4154   -2.1698 C   0  0  0  0  0  0  0  0  0  0  0  0
   -0.3109   -3.6496   -1.6129 C   0  0  0  0  0  0  0  0  0  0  0  0
    2.2217    1.4594   -2.2074 C   0  0  0  0  0  0  0  0  0  0  0  0
    1.6606   -2.5167    1.1966 C   0  0  0  0  0  0  0  0  0  0  0  0
    3.1846   -2.4787    1.1843 C   0  0  2  0  0  0  0  0  0  0  0  0
    3.7250   -1.4807    2.2000 C   0  0  0  0  0  0  0  0  0  0  0  0
   -2.4859    2.0799   -0.8036 H   0  0  0  0  0  0  0  0  0  0  0  0
   -4.0055    3.6284    0.2473 H   0  0  0  0  0  0  0  0  0  0  0  0
   -3.9493    2.7484    1.7690 H   0  0  0  0  0  0  0  0  0  0  0  0
   -2.3861    0.5663    1.8745 H   0  0  0  0  0  0  0  0  0  0  0  0
   -1.4358    0.1854    0.4514 H   0  0  0  0  0  0  0  0  0  0  0  0
   -5.0626    1.7346   -0.8884 H   0  0  0  0  0  0  0  0  0  0  0  0
   -5.9708    2.0931    0.5785 H   0  0  0  0  0  0  0  0  0  0  0  0
   -4.8961    0.2361    1.7801 H   0  0  0  0  0  0  0  0  0  0  0  0
   -5.6054   -0.3368    0.2653 H   0  0  0  0  0  0  0  0  0  0  0  0
   -4.2652   -2.1880    0.5200 H   0  0  0  0  0  0  0  0  0  0  0  0
   -3.1298   -1.7068    1.7539 H   0  0  0  0  0  0  0  0  0  0  0  0
   -1.6658    3.3696    1.7164 H   0  0  0  0  0  0  0  0  0  0  0  0
   -0.5341    1.4189   -1.2270 H   0  0  0  0  0  0  0  0  0  0  0  0
   -0.8368   -2.2557    1.4554 H   0  0  0  0  0  0  0  0  0  0  0  0
   -3.5245   -2.5823   -1.8713 H   0  0  0  0  0  0  0  0  0  0  0  0
    0.5132    4.2776    1.8715 H   0  0  0  0  0  0  0  0  0  0  0  0
    2.8524    4.3241    1.0440 H   0  0  0  0  0  0  0  0  0  0  0  0
   -1.7831   -3.7437   -3.1824 H   0  0  0  0  0  0  0  0  0  0  0  0
    0.4494   -4.1610   -2.1970 H   0  0  0  0  0  0  0  0  0  0  0  0
    1.8709    0.7470   -2.9408 H   0  0  0  0  0  0  0  0  0  0  0  0
    4.4947    3.1292   -1.0324 H   0  0  0  0  0  0  0  0  0  0  0  0
    1.3017   -2.8139    2.1886 H   0  0  0  0  0  0  0  0  0  0  0  0
    1.2985   -1.5072    0.9582 H   0  0  0  0  0  0  0  0  0  0  0  0
    3.5971   -3.4799    1.3517 H   0  0  0  0  0  0  0  0  0  0  0  0
    3.4078   -0.4610    1.9569 H   0  0  0  0  0  0  0  0  0  0  0  0
    3.3975   -1.7325    3.2134 H   0  0  0  0  0  0  0  0  0  0  0  0
    4.5945   -2.0376   -0.0961 H   0  0  0  0  0  0  0  0  0  0  0  0
    5.4622   -0.8627    2.8189 H   0  0  0  0  0  0  0  0  0  0  0  0
  1 21  1  0  0  0  0
  1 27  1  0  0  0  0
  2 28  1  0  0  0  0
  2 56  1  0  0  0  0
  3 29  1  0  0  0  0
  3 57  1  0  0  0  0
  4 10  1  0  0  0  0
  4 12  1  0  0  0  0
  4 13  1  0  0  0  0
  5  8  1  0  0  0  0
  5 15  1  0  0  0  0
  5 41  1  0  0  0  0
  6  7  1  0  0  0  0
  6 22  1  0  0  0  0
  6 50  1  0  0  0  0
  7 26  2  0  0  0  0
  8  9  1  0  0  0  0
  8 10  1  0  0  0  0
  8 30  1  0  0  0  0
  9 11  1  0  0  0  0
  9 31  1  0  0  0  0
  9 32  1  0  0  0  0
 10 33  1  0  0  0  0
 10 34  1  0  0  0  0
 11 12  1  0  0  0  0
 11 35  1  0  0  0  0
 11 36  1  0  0  0  0
 12 37  1  0  0  0  0
 12 38  1  0  0  0  0
 13 14  1  0  0  0  0
 13 39  1  0  0  0  0
 13 40  1  0  0  0  0
 14 17  2  0  0  0  0
 14 18  1  0  0  0  0
 15 16  2  0  0  0  0
 15 19  1  0  0  0  0
 16 20  1  0  0  0  0
 16 42  1  0  0  0  0
 17 21  1  0  0  0  0
 17 43  1  0  0  0  0
 18 24  2  0  0  0  0
 18 44  1  0  0  0  0
 19 23  2  0  0  0  0
 19 45  1  0  0  0  0
 20 22  2  0  0  0  0
 20 26  1  0  0  0  0
 21 25  2  0  0  0  0
 22 23  1  0  0  0  0
 23 46  1  0  0  0  0
 24 25  1  0  0  0  0
 24 47  1  0  0  0  0
 25 48  1  0  0  0  0
 26 49  1  0  0  0  0
 27 28  1  0  0  0  0
 27 51  1  0  0  0  0
 27 52  1  0  0  0  0
 28 29  1  0  0  0  0
 28 53  1  0  0  0  0
 29 54  1  0  0  0  0
 29 55  1  0  0  0  0
M  END
> <PUBCHEM_COMPOUND_CID>
25010428

> <PUBCHEM_CONFORMER_RMSD>
1.2

> <PUBCHEM_CONFORMER_DIVERSEORDER>
1
78
52
91
96
71
21
11
20
79
114
97
32
25
105
61
36
46
77
80
67
93
56
73
60
58
124
112
87
18
117
54
42
84
41
115
10
107
121
82
23
123
49
40
88
75
66
9
55
89
118
39
51
37
72
94
24
6
125
86
90
109
70
76
104
102
108
5
111
122
100
106
119
48
62
103
64
28
2
83
116
47
68
22
69
59
45
63
4
92
34
13
95
43
3
17
85
120
12
110
31
57
113
65
101
29
33
35
99
98
74
15
26
81
8
44
27
50
38
16
30
7
14
53
19

> <PUBCHEM_MMFF94_PARTIAL_CHARGES>
38
1 -0.36
10 0.27
12 0.27
13 0.41
14 -0.14
15 0.1
16 -0.15
17 -0.15
18 -0.15
19 -0.15
2 -0.68
21 0.08
22 -0.15
23 -0.15
24 -0.15
25 -0.15
26 0.14
27 0.28
28 0.28
29 0.28
3 -0.68
4 -0.81
41 0.4
42 0.15
43 0.15
44 0.15
45 0.15
46 0.15
47 0.15
48 0.15
49 0.15
5 -0.87
50 0.27
56 0.4
57 0.4
6 0.3
7 -0.71
8 0.37

> <PUBCHEM_EFFECTIVE_ROTOR_COUNT>
9.2

> <PUBCHEM_PHARMACOPHORE_FEATURES>
14
1 1 acceptor
1 2 acceptor
1 2 donor
1 3 acceptor
1 3 donor
1 4 cation
1 5 cation
1 5 donor
1 6 donor
1 7 acceptor
5 6 7 20 22 26 rings
6 14 17 18 21 24 25 rings
6 15 16 19 20 22 23 rings
6 4 8 9 10 11 12 rings

> <PUBCHEM_HEAVY_ATOM_COUNT>
29

> <PUBCHEM_ATOM_DEF_STEREO_COUNT>
2

> <PUBCHEM_ATOM_UDEF_STEREO_COUNT>
0

> <PUBCHEM_BOND_DEF_STEREO_COUNT>
0

> <PUBCHEM_BOND_UDEF_STEREO_COUNT>
0

> <PUBCHEM_ISOTOPIC_ATOM_COUNT>
0

> <PUBCHEM_COMPONENT_COUNT>
1

> <PUBCHEM_CACTVS_TAUTO_COUNT>
2

> <PUBCHEM_CONFORMER_ID>
017DA0FC00000001

> <PUBCHEM_MMFF94_ENERGY>
76.1064

> <PUBCHEM_FEATURE_SELFOVERLAP>
71.149

> <PUBCHEM_SHAPE_FINGERPRINT>
10006869 2 18195254540917385259
10165383 225 14377625369748897621
1100329 8 18410016511402846518
11513181 2 18131066026660004342
12156800 1 16557882655117933351
12202916 173 16183808187515569180
13122387 1 17977952276117722690
140371 6 17906742397535462233
14114206 34 17543919360999962557
14117953 113 17759802546221886349
14659021 117 17549261883704786696
14725015 67 16177616858714407315
14932701 244 14795360301302217012
15297060 5 17986968344933799442
15403338 16 17242729776010825859
15840311 113 16550309996917014433
15961568 22 17907019469685540591
17977149 70 17549561612904578598
21315764 21 17535432088905997119
22113638 7 18339916005181135179
25019877 29 17344322511286699295
3298306 158 18338809978636792389
338550 245 18334299807424687220
463206 1 18336270123640111600
474144 1 18187376389294230654
4742675 86 17402572326749559462
57091435 65 18264209282263802210
6287921 2 17406283126742290139
9982175 49 17896597470334885628

> <PUBCHEM_SHAPE_MULTIPOLES>
559.27
8.17
6.8
1.95
0.79
1.05
-0.53
-1.59
2.22
-1.61
-0.42
-2.12
0.91
-3.89

> <PUBCHEM_SHAPE_SELFOVERLAP>
1196.721

> <PUBCHEM_SHAPE_VOLUME>
310.5

> <PUBCHEM_COORDINATE_TYPE>
2
5
10

$$$$
25008498
  -OEChem-05102415123D

 56 60  0     1  0  0  0  0  0999 V2000
   -4.1552   -2.5706   -1.4497 O   0  0  0  0  0  0  0  0  0  0  0  0
    1.0433    3.1268   -0.1899 N   0  0  2  0  0  0  0  0  0  0  0  0
    3.7181    0.5405    0.1931 N   0  0  0  0  0  0  0  0  0  0  0  0
   -4.2659   -0.2894    0.2857 N   0  0  0  0  0  0  0  0  0  0  0  0
    1.9206   -4.6341    0.1074 N   0  0  0  0  0  0  0  0  0  0  0  0
    0.7774   -4.5702   -0.5954 N   0  0  0  0  0  0  0  0  0  0  0  0
    2.9688    1.5912   -0.4641 C   0  0  1  0  0  0  0  0  0  0  0  0
    1.7890    2.0162    0.4203 C   0  0  0  0  0  0  0  0  0  0  0  0
    3.8906    2.7770   -0.7509 C   0  0  0  0  0  0  0  0  0  0  0  0
    3.0912    3.9513   -1.3046 C   0  0  0  0  0  0  0  0  0  0  0  0
    1.9087    4.2958   -0.3984 C   0  0  0  0  0  0  0  0  0  0  0  0
   -0.1096    3.4846    0.6362 C   0  0  0  0  0  0  0  0  0  0  0  0
   -1.2377    2.4996    0.4817 C   0  0  0  0  0  0  0  0  0  0  0  0
    3.3220   -0.7848    0.2111 C   0  0  0  0  0  0  0  0  0  0  0  0
   -1.4739    1.5577    1.4896 C   0  0  0  0  0  0  0  0  0  0  0  0
   -2.0349    2.5368   -0.6606 C   0  0  0  0  0  0  0  0  0  0  0  0
   -2.5328    0.6404    1.3387 C   0  0  0  0  0  0  0  0  0  0  0  0
   -3.3154    0.7013    0.1837 C   0  0  0  0  0  0  0  0  0  0  0  0
   -3.0911    1.6373   -0.8321 C   0  0  0  0  0  0  0  0  0  0  0  0
    2.1355   -1.1572   -0.4334 C   0  0  0  0  0  0  0  0  0  0  0  0
    4.1096   -1.7313    0.8689 C   0  0  0  0  0  0  0  0  0  0  0  0
   -3.0464   -0.4207    2.1357 C   0  0  0  0  0  0  0  0  0  0  0  0
   -4.1113   -0.9729    1.4619 C   0  0  0  0  0  0  0  0  0  0  0  0
    1.7519   -2.5083   -0.4045 C   0  0  0  0  0  0  0  0  0  0  0  0
   -5.2873   -0.5794   -0.6978 C   0  0  0  0  0  0  0  0  0  0  0  0
    2.5547   -3.4303    0.2580 C   0  0  0  0  0  0  0  0  0  0  0  0
    3.7409   -3.0800    0.9065 C   0  0  0  0  0  0  0  0  0  0  0  0
   -4.7390   -1.3520   -1.8926 C   0  0  0  0  0  0  0  0  0  0  0  0
    0.6781   -3.2755   -0.9049 C   0  0  0  0  0  0  0  0  0  0  0  0
    2.6040    1.2542   -1.4434 H   0  0  0  0  0  0  0  0  0  0  0  0
    1.1275    1.1601    0.5754 H   0  0  0  0  0  0  0  0  0  0  0  0
    2.1582    2.3024    1.4159 H   0  0  0  0  0  0  0  0  0  0  0  0
    4.4030    3.0906    0.1683 H   0  0  0  0  0  0  0  0  0  0  0  0
    4.6745    2.4888   -1.4617 H   0  0  0  0  0  0  0  0  0  0  0  0
    2.7253    3.7038   -2.3092 H   0  0  0  0  0  0  0  0  0  0  0  0
    3.7438    4.8255   -1.4092 H   0  0  0  0  0  0  0  0  0  0  0  0
    1.3399    5.1009   -0.8793 H   0  0  0  0  0  0  0  0  0  0  0  0
    2.2779    4.6839    0.5602 H   0  0  0  0  0  0  0  0  0  0  0  0
    0.1683    3.6043    1.6925 H   0  0  0  0  0  0  0  0  0  0  0  0
   -0.5074    4.4636    0.3332 H   0  0  0  0  0  0  0  0  0  0  0  0
    4.5384    0.7956    0.7324 H   0  0  0  0  0  0  0  0  0  0  0  0
   -0.8528    1.5280    2.3808 H   0  0  0  0  0  0  0  0  0  0  0  0
   -1.8445    3.2726   -1.4388 H   0  0  0  0  0  0  0  0  0  0  0  0
   -3.7077    1.6761   -1.7236 H   0  0  0  0  0  0  0  0  0  0  0  0
    1.4926   -0.4666   -0.9646 H   0  0  0  0  0  0  0  0  0  0  0  0
    5.0297   -1.4300    1.3658 H   0  0  0  0  0  0  0  0  0  0  0  0
   -2.6770   -0.7465    3.0985 H   0  0  0  0  0  0  0  0  0  0  0  0
   -4.7643   -1.7940    1.7260 H   0  0  0  0  0  0  0  0  0  0  0  0
   -6.0646   -1.1681   -0.1964 H   0  0  0  0  0  0  0  0  0  0  0  0
   -5.7380    0.3677   -1.0125 H   0  0  0  0  0  0  0  0  0  0  0  0
    4.3513   -3.8168    1.4169 H   0  0  0  0  0  0  0  0  0  0  0  0
   -5.5484   -1.5870   -2.5908 H   0  0  0  0  0  0  0  0  0  0  0  0
   -3.9733   -0.7793   -2.4248 H   0  0  0  0  0  0  0  0  0  0  0  0
   -0.1733   -2.9426   -1.4817 H   0  0  0  0  0  0  0  0  0  0  0  0
    2.2153   -5.5364    0.4593 H   0  0  0  0  0  0  0  0  0  0  0  0
   -3.8233   -3.0311   -2.2391 H   0  0  0  0  0  0  0  0  0  0  0  0
  1 28  1  0  0  0  0
  1 56  1  0  0  0  0
  2  8  1  0  0  0  0
  2 11  1  0  0  0  0
  2 12  1  0  0  0  0
  3  7  1  0  0  0  0
  3 14  1  0  0  0  0
  3 41  1  0  0  0  0
  4 18  1  0  0  0  0
  4 23  1  0  0  0  0
  4 25  1  0  0  0  0
  5  6  1  0  0  0  0
  5 26  1  0  0  0  0
  5 55  1  0  0  0  0
  6 29  2  0  0  0  0
  7  8  1  0  0  0  0
  7  9  1  0  0  0  0
  7 30  1  0  0  0  0
  8 31  1  0  0  0  0
  8 32  1  0  0  0  0
  9 10  1  0  0  0  0
  9 33  1  0  0  0  0
  9 34  1  0  0  0  0
 10 11  1  0  0  0  0
 10 35  1  0  0  0  0
 10 36  1  0  0  0  0
 11 37  1  0  0  0  0
 11 38  1  0  0  0  0
 12 13  1  0  0  0  0
 12 39  1  0  0  0  0
 12 40  1  0  0  0  0
 13 15  2  0  0  0  0
 13 16  1  0  0  0  0
 14 20  2  0  0  0  0
 14 21  1  0  0  0  0
 15 17  1  0  0  0  0
 15 42  1  0  0  0  0
 16 19  2  0  0  0  0
 16 43  1  0  0  0  0
 17 18  2  0  0  0  0
 17 22  1  0  0  0  0
 18 19  1  0  0  0  0
 19 44  1  0  0  0  0
 20 24  1  0  0  0  0
 20 45  1  0  0  0  0
 21 27  2  0  0  0  0
 21 46  1  0  0  0  0
 22 23  2  0  0  0  0
 22 47  1  0  0  0  0
 23 48  1  0  0  0  0
 24 26  2  0  0  0  0
 24 29  1  0  0  0  0
 25 28  1  0  0  0  0
 25 49  1  0  0  0  0
 25 50  1  0  0  0  0
 26 27  1  0  0  0  0
 27 51  1  0  0  0  0
 28 52  1  0  0  0  0
 28 53  1  0  0  0  0
 29 54  1  0  0  0  0
M  END
> <PUBCHEM_COMPOUND_CID>
25008498

> <PUBCHEM_CONFORMER_RMSD>
1.2

> <PUBCHEM_CONFORMER_DIVERSEORDER>
1
28
82
120
102
96
98
72
37
65
138
127
48
154
136
151
144
80
58
140
17
119
131
112
78
64
125
60
56
139
77
132
150
130
117
68
42
52
5
123
109
6
45
147
115
84
69
23
141
76
91
95
92
108
99
157
43
33
51
7
104
53
124
158
137
62
75
88
20
14
36
126
63
149
105
67
118
134
22
18
145
24
86
44
110
16
83
46
39
103
11
156
89
116
143
32
93
49
59
8
25
54
129
66
10
152
153
94
100
135
121
74
26
2
38
31
97
41
148
111
133
29
146
40
113
9
73
21
15
122
101
155
30
106
35
128
34
55
85
81
57
19
27
4
90
61
50
3
71
114
79
87
70
142
13
12
47
107

> <PUBCHEM_MMFF94_PARTIAL_CHARGES>
37
1 -0.68
11 0.27
12 0.41
13 -0.14
14 0.1
15 -0.15
16 -0.15
18 -0.15
19 -0.15
2 -0.81
20 -0.15
21 -0.15
22 -0.15
23 -0.3
25 0.26
26 -0.15
27 -0.15
28 0.28
29 0.14
3 -0.87
4 0.05
41 0.4
42 0.15
43 0.15
44 0.15
45 0.15
46 0.15
47 0.15
48 0.15
5 0.3
51 0.15
54 0.15
55 0.27
56 0.4
6 -0.71
7 0.37
8 0.27

> <PUBCHEM_EFFECTIVE_ROTOR_COUNT>
7.2

> <PUBCHEM_PHARMACOPHORE_FEATURES>
13
1 1 acceptor
1 1 donor
1 2 cation
1 3 cation
1 3 donor
1 4 cation
1 5 donor
1 6 acceptor
5 4 17 18 22 23 rings
5 5 6 24 26 29 rings
6 13 15 16 17 18 19 rings
6 14 20 21 24 26 27 rings
6 2 7 8 9 10 11 rings

> <PUBCHEM_HEAVY_ATOM_COUNT>
29

> <PUBCHEM_ATOM_DEF_STEREO_COUNT>
0

> <PUBCHEM_ATOM_UDEF_STEREO_COUNT>
1

> <PUBCHEM_BOND_DEF_STEREO_COUNT>
0

> <PUBCHEM_BOND_UDEF_STEREO_COUNT>
0

> <PUBCHEM_ISOTOPIC_ATOM_COUNT>
0

> <PUBCHEM_COMPONENT_COUNT>
1

> <PUBCHEM_CACTVS_TAUTO_COUNT>
2

> <PUBCHEM_CONFORMER_ID>
017D997200000001

> <PUBCHEM_MMFF94_ENERGY>
60.5725

> <PUBCHEM_FEATURE_SELFOVERLAP>
66.155

> <PUBCHEM_SHAPE_FINGERPRINT>
10190206 1 14944796094781020365
10940486 97 16604653320301229990
1100329 8 18194965373637805828
11991303 11 17538021538528829188
12156800 1 17264387225999949240
12553582 1 17833290635422073256
13122387 1 18123758556042790314
1361 2 18122057865353265093
13911987 19 17974301115946477989
14117953 113 18055915386222025839
14659021 117 17254547202527062274
14866123 147 17905614651125140840
152267 14 17835518228352153134
15351339 4 17548400957436346546
16992727 255 12495938608226686493
17138139 8 17413018052322094863
17627616 140 18194117653813747262
19930381 70 18410012104940318297
20028762 73 18272653480758542532
20775530 9 18117849806446102352
21133410 171 17104764130852993075
21133410 52 18339906200557678502
21315764 371 17703224147468029409
21857420 4 14293368806028909557
23559900 14 18335417920134063112
3882209 13 17829298342760832866
4280585 95 17900252010450636544
445580 102 18336275582195203203
463206 1 18341048601232272635
469060 322 18053065537618549350
5309563 4 18338804424510693272
5312544 6 18338513169935777686
613672 6 18046901585291359626
66674814 147 17475481329465889791

> <PUBCHEM_SHAPE_MULTIPOLES>
566.03
9.65
6.78
1.48
7.24
1.23
0.17
3.51
-1.06
-7.51
-1.62
1.63
0.25
-2.03

> <PUBCHEM_SHAPE_SELFOVERLAP>
1241.447

> <PUBCHEM_SHAPE_VOLUME>
308.7

> <PUBCHEM_COORDINATE_TYPE>
2
5
10

$$$$
25010429
  -OEChem-05102415123D

 57 60  0     1  0  0  0  0  0999 V2000
    1.1545   -3.4824    0.1035 O   0  0  0  0  0  0  0  0  0  0  0  0
    3.6381   -3.9001    1.3825 O   0  0  0  0  0  0  0  0  0  0  0  0
    3.3222   -0.3025    1.7930 O   0  0  0  0  0  0  0  0  0  0  0  0
   -3.4363   -0.1288    0.2256 N   0  0  2  0  0  0  0  0  0  0  0  0
   -1.3146    2.8779    0.8952 N   0  0  0  0  0  0  0  0  0  0  0  0
    3.7304    2.6314   -1.2267 N   0  0  0  0  0  0  0  0  0  0  0  0
    3.6058    1.7893   -2.2660 N   0  0  0  0  0  0  0  0  0  0  0  0
   -2.3990    2.1203    0.3057 C   0  0  2  0  0  0  0  0  0  0  0  0
   -3.7374    2.7375    0.7131 C   0  0  0  0  0  0  0  0  0  0  0  0
   -2.3118    0.6559    0.7561 C   0  0  0  0  0  0  0  0  0  0  0  0
   -4.8936    1.8693    0.2292 C   0  0  0  0  0  0  0  0  0  0  0  0
   -4.7238    0.4170    0.6766 C   0  0  0  0  0  0  0  0  0  0  0  0
   -3.3107   -1.5328    0.6165 C   0  0  0  0  0  0  0  0  0  0  0  0
   -2.2776   -2.2542   -0.2074 C   0  0  0  0  0  0  0  0  0  0  0  0
   -0.0187    2.8610    0.4115 C   0  0  0  0  0  0  0  0  0  0  0  0
    0.2879    2.0766   -0.7076 C   0  0  0  0  0  0  0  0  0  0  0  0
   -1.0246   -2.5369    0.3364 C   0  0  0  0  0  0  0  0  0  0  0  0
   -2.5737   -2.6400   -1.5147 C   0  0  0  0  0  0  0  0  0  0  0  0
    0.9635    3.6258    1.0434 C   0  0  0  0  0  0  0  0  0  0  0  0
    1.6097    2.0746   -1.1837 C   0  0  0  0  0  0  0  0  0  0  0  0
   -0.0678   -3.2058   -0.4271 C   0  0  0  0  0  0  0  0  0  0  0  0
    2.5684    2.8453   -0.5355 C   0  0  0  0  0  0  0  0  0  0  0  0
    2.2836    3.6342    0.5813 C   0  0  0  0  0  0  0  0  0  0  0  0
   -1.6169   -3.3087   -2.2783 C   0  0  0  0  0  0  0  0  0  0  0  0
   -0.3640   -3.5915   -1.7344 C   0  0  0  0  0  0  0  0  0  0  0  0
    2.3145    1.4525   -2.2365 C   0  0  0  0  0  0  0  0  0  0  0  0
    1.6560   -2.5773    1.0858 C   0  0  0  0  0  0  0  0  0  0  0  0
    3.1803   -2.5837    1.0647 C   0  0  1  0  0  0  0  0  0  0  0  0
    3.7557   -1.6239    2.0979 C   0  0  0  0  0  0  0  0  0  0  0  0
   -2.3647    2.1807   -0.7901 H   0  0  0  0  0  0  0  0  0  0  0  0
   -3.8320    3.7503    0.3030 H   0  0  0  0  0  0  0  0  0  0  0  0
   -3.7930    2.8367    1.8053 H   0  0  0  0  0  0  0  0  0  0  0  0
   -2.2942    0.6079    1.8546 H   0  0  0  0  0  0  0  0  0  0  0  0
   -1.3636    0.2299    0.4179 H   0  0  0  0  0  0  0  0  0  0  0  0
   -4.9508    1.9129   -0.8659 H   0  0  0  0  0  0  0  0  0  0  0  0
   -5.8397    2.2666    0.6141 H   0  0  0  0  0  0  0  0  0  0  0  0
   -4.8133    0.3535    1.7691 H   0  0  0  0  0  0  0  0  0  0  0  0
   -5.5478   -0.1657    0.2470 H   0  0  0  0  0  0  0  0  0  0  0  0
   -4.2613   -2.0605    0.4540 H   0  0  0  0  0  0  0  0  0  0  0  0
   -3.1053   -1.6393    1.6905 H   0  0  0  0  0  0  0  0  0  0  0  0
   -1.4926    3.3916    1.7514 H   0  0  0  0  0  0  0  0  0  0  0  0
   -0.4356    1.4719   -1.2398 H   0  0  0  0  0  0  0  0  0  0  0  0
   -0.8315   -2.2493    1.3662 H   0  0  0  0  0  0  0  0  0  0  0  0
   -3.5462   -2.4252   -1.9498 H   0  0  0  0  0  0  0  0  0  0  0  0
    0.7130    4.2317    1.9120 H   0  0  0  0  0  0  0  0  0  0  0  0
    3.0479    4.2273    1.0708 H   0  0  0  0  0  0  0  0  0  0  0  0
   -1.8473   -3.6089   -3.2962 H   0  0  0  0  0  0  0  0  0  0  0  0
    0.3774   -4.1124   -2.3339 H   0  0  0  0  0  0  0  0  0  0  0  0
    1.9387    0.7668   -2.9828 H   0  0  0  0  0  0  0  0  0  0  0  0
    4.6425    3.0295   -1.0409 H   0  0  0  0  0  0  0  0  0  0  0  0
    1.2915   -2.9052    2.0670 H   0  0  0  0  0  0  0  0  0  0  0  0
    1.3114   -1.5545    0.8874 H   0  0  0  0  0  0  0  0  0  0  0  0
    3.5373   -2.3390    0.0583 H   0  0  0  0  0  0  0  0  0  0  0  0
    3.4290   -1.8832    3.1110 H   0  0  0  0  0  0  0  0  0  0  0  0
    4.8504   -1.6540    2.0830 H   0  0  0  0  0  0  0  0  0  0  0  0
    3.3105   -4.1262    2.2698 H   0  0  0  0  0  0  0  0  0  0  0  0
    3.7086    0.2859    2.4638 H   0  0  0  0  0  0  0  0  0  0  0  0
  1 21  1  0  0  0  0
  1 27  1  0  0  0  0
  2 28  1  0  0  0  0
  2 56  1  0  0  0  0
  3 29  1  0  0  0  0
  3 57  1  0  0  0  0
  4 10  1  0  0  0  0
  4 12  1  0  0  0  0
  4 13  1  0  0  0  0
  5  8  1  0  0  0  0
  5 15  1  0  0  0  0
  5 41  1  0  0  0  0
  6  7  1  0  0  0  0
  6 22  1  0  0  0  0
  6 50  1  0  0  0  0
  7 26  2  0  0  0  0
  8  9  1  0  0  0  0
  8 10  1  0  0  0  0
  8 30  1  0  0  0  0
  9 11  1  0  0  0  0
  9 31  1  0  0  0  0
  9 32  1  0  0  0  0
 10 33  1  0  0  0  0
 10 34  1  0  0  0  0
 11 12  1  0  0  0  0
 11 35  1  0  0  0  0
 11 36  1  0  0  0  0
 12 37  1  0  0  0  0
 12 38  1  0  0  0  0
 13 14  1  0  0  0  0
 13 39  1  0  0  0  0
 13 40  1  0  0  0  0
 14 17  2  0  0  0  0
 14 18  1  0  0  0  0
 15 16  2  0  0  0  0
 15 19  1  0  0  0  0
 16 20  1  0  0  0  0
 16 42  1  0  0  0  0
 17 21  1  0  0  0  0
 17 43  1  0  0  0  0
 18 24  2  0  0  0  0
 18 44  1  0  0  0  0
 19 23  2  0  0  0  0
 19 45  1  0  0  0  0
 20 22  2  0  0  0  0
 20 26  1  0  0  0  0
 21 25  2  0  0  0  0
 22 23  1  0  0  0  0
 23 46  1  0  0  0  0
 24 25  1  0  0  0  0
 24 47  1  0  0  0  0
 25 48  1  0  0  0  0
 26 49  1  0  0  0  0
 27 28  1  0  0  0  0
 27 51  1  0  0  0  0
 27 52  1  0  0  0  0
 28 29  1  0  0  0  0
 28 53  1  0  0  0  0
 29 54  1  0  0  0  0
 29 55  1  0  0  0  0
M  END
> <PUBCHEM_COMPOUND_CID>
25010429

> <PUBCHEM_CONFORMER_RMSD>
1.2

> <PUBCHEM_CONFORMER_DIVERSEORDER>
1
8
100
13
77
113
56
86
59
63
98
120
105
85
79
83
46
70
114
23
66
106
109
89
78
91
14
102
62
111
82
65
41
97
99
123
92
42
122
68
20
108
17
80
16
55
76
118
51
27
15
40
52
119
115
101
73
69
104
28
29
84
54
110
103
117
116
88
94
33
45
121
95
96
6
71
32
60
64
9
2
93
87
107
22
36
72
47
67
112
3
19
39
58
37
74
4
38
49
50
25
61
21
18
81
48
53
10
7
44
35
31
34
12
90
5
11
43
26
57
75
30
24

> <PUBCHEM_MMFF94_PARTIAL_CHARGES>
38
1 -0.36
10 0.27
12 0.27
13 0.41
14 -0.14
15 0.1
16 -0.15
17 -0.15
18 -0.15
19 -0.15
2 -0.68
21 0.08
22 -0.15
23 -0.15
24 -0.15
25 -0.15
26 0.14
27 0.28
28 0.28
29 0.28
3 -0.68
4 -0.81
41 0.4
42 0.15
43 0.15
44 0.15
45 0.15
46 0.15
47 0.15
48 0.15
49 0.15
5 -0.87
50 0.27
56 0.4
57 0.4
6 0.3
7 -0.71
8 0.37

> <PUBCHEM_EFFECTIVE_ROTOR_COUNT>
9.2

> <PUBCHEM_PHARMACOPHORE_FEATURES>
14
1 1 acceptor
1 2 acceptor
1 2 donor
1 3 acceptor
1 3 donor
1 4 cation
1 5 cation
1 5 donor
1 6 donor
1 7 acceptor
5 6 7 20 22 26 rings
6 14 17 18 21 24 25 rings
6 15 16 19 20 22 23 rings
6 4 8 9 10 11 12 rings

> <PUBCHEM_HEAVY_ATOM_COUNT>
29

> <PUBCHEM_ATOM_DEF_STEREO_COUNT>
2

> <PUBCHEM_ATOM_UDEF_STEREO_COUNT>
0

> <PUBCHEM_BOND_DEF_STEREO_COUNT>
0

> <PUBCHEM_BOND_UDEF_STEREO_COUNT>
0

> <PUBCHEM_ISOTOPIC_ATOM_COUNT>
0

> <PUBCHEM_COMPONENT_COUNT>
1

> <PUBCHEM_CACTVS_TAUTO_COUNT>
2

> <PUBCHEM_CONFORMER_ID>
017DA0FD00000001

> <PUBCHEM_MMFF94_ENERGY>
76.5927

> <PUBCHEM_FEATURE_SELFOVERLAP>
71.142

> <PUBCHEM_SHAPE_FINGERPRINT>
10006869 2 18267873963985489227
11513181 2 18059564776889435582
11828532 37 14368562959355153754
12156800 1 16557600071897209511
12202916 173 16328484113636650060
12788726 201 17908708680254167365
13402501 40 17476913558903600978
140371 6 17834966265547203513
14114206 34 17616257321865585493
14117953 113 17615969906949071605
14659021 117 17548979309295608592
14725015 67 17548417458695254339
15297060 5 17987246534265809994
15840311 113 16406757754494357321
15961568 22 17834959663702544879
17627616 140 18336831977991698278
17977149 70 17693675727328229262
21315764 21 17463651571803504463
22113638 7 18268136574705433467
25019877 29 17272825646872886295
3298306 158 18411430505437807461
474144 1 18188501185347011934
57091435 65 18335990851643818690
6287921 2 17479747009226891155
9982175 49 17969214707169755228

> <PUBCHEM_SHAPE_MULTIPOLES>
559.27
7.75
6.99
1.98
1.79
2.68
-0.76
-2.74
0.96
-2.02
0.48
-1.85
1.07
-4.13

> <PUBCHEM_SHAPE_SELFOVERLAP>
1196.834

> <PUBCHEM_SHAPE_VOLUME>
310.4

> <PUBCHEM_COORDINATE_TYPE>
2
5
10

$$$$
25010430
  -OEChem-05102415123D

 56 59  0     1  0  0  0  0  0999 V2000
    0.6795   -3.6685    0.2619 O   0  0  0  0  0  0  0  0  0  0  0  0
    3.0766   -4.2696    1.9297 O   0  0  0  0  0  0  0  0  0  0  0  0
   -3.3103    0.3821    0.1579 N   0  0  2  0  0  0  0  0  0  0  0  0
   -0.7594    3.0183    0.8883 N   0  0  0  0  0  0  0  0  0  0  0  0
    4.2607    1.9285   -1.0157 N   0  0  0  0  0  0  0  0  0  0  0  0
    4.0437    1.1008   -2.0513 N   0  0  0  0  0  0  0  0  0  0  0  0
   -1.9274    2.4358    0.2607 C   0  0  2  0  0  0  0  0  0  0  0  0
   -3.1638    3.2670    0.6052 C   0  0  0  0  0  0  0  0  0  0  0  0
   -2.0961    0.9840    0.7281 C   0  0  0  0  0  0  0  0  0  0  0  0
   -4.4246    2.5886    0.0810 C   0  0  0  0  0  0  0  0  0  0  0  0
   -4.5097    1.1353    0.5489 C   0  0  0  0  0  0  0  0  0  0  0  0
   -3.4290   -1.0173    0.5671 C   0  0  0  0  0  0  0  0  0  0  0  0
   -2.4937   -1.9089   -0.2056 C   0  0  0  0  0  0  0  0  0  0  0  0
    0.5351    2.7852    0.4601 C   0  0  0  0  0  0  0  0  0  0  0  0
    0.7558    1.9437   -0.6375 C   0  0  0  0  0  0  0  0  0  0  0  0
   -1.3257   -2.3809    0.3934 C   0  0  0  0  0  0  0  0  0  0  0  0
    1.6018    3.3919    1.1258 C   0  0  0  0  0  0  0  0  0  0  0  0
   -2.7954   -2.2630   -1.5205 C   0  0  0  0  0  0  0  0  0  0  0  0
    2.0780    1.7211   -1.0573 C   0  0  0  0  0  0  0  0  0  0  0  0
   -0.4596   -3.2073   -0.3225 C   0  0  0  0  0  0  0  0  0  0  0  0
    3.1217    2.3378   -0.3763 C   0  0  0  0  0  0  0  0  0  0  0  0
    2.9234    3.1801    0.7199 C   0  0  0  0  0  0  0  0  0  0  0  0
   -1.9292   -3.0893   -2.2366 C   0  0  0  0  0  0  0  0  0  0  0  0
   -0.7614   -3.5613   -1.6375 C   0  0  0  0  0  0  0  0  0  0  0  0
    2.7148    0.9768   -2.0734 C   0  0  0  0  0  0  0  0  0  0  0  0
    1.2808   -2.8402    1.2560 C   0  0  0  0  0  0  0  0  0  0  0  0
    2.7885   -3.0572    1.2348 C   0  0  1  0  0  0  0  0  0  0  0  0
    3.5251   -1.9135    1.9153 C   0  0  0  0  0  0  0  0  0  0  0  0
   -1.8397    2.4722   -0.8332 H   0  0  0  0  0  0  0  0  0  0  0  0
   -3.2465    3.3914    1.6931 H   0  0  0  0  0  0  0  0  0  0  0  0
   -3.0769    4.2750    0.1820 H   0  0  0  0  0  0  0  0  0  0  0  0
   -1.2163    0.4053    0.4343 H   0  0  0  0  0  0  0  0  0  0  0  0
   -2.1307    0.9515    1.8268 H   0  0  0  0  0  0  0  0  0  0  0  0
   -4.4299    2.6232   -1.0158 H   0  0  0  0  0  0  0  0  0  0  0  0
   -5.3088    3.1392    0.4218 H   0  0  0  0  0  0  0  0  0  0  0  0
   -5.3991    0.6860    0.0904 H   0  0  0  0  0  0  0  0  0  0  0  0
   -4.6523    1.1047    1.6372 H   0  0  0  0  0  0  0  0  0  0  0  0
   -4.4450   -1.3876    0.3694 H   0  0  0  0  0  0  0  0  0  0  0  0
   -3.2869   -1.1381    1.6498 H   0  0  0  0  0  0  0  0  0  0  0  0
   -0.8863    3.5677    1.7314 H   0  0  0  0  0  0  0  0  0  0  0  0
   -0.0339    1.4549   -1.1942 H   0  0  0  0  0  0  0  0  0  0  0  0
   -1.1309   -2.1131    1.4282 H   0  0  0  0  0  0  0  0  0  0  0  0
    1.4178    4.0442    1.9772 H   0  0  0  0  0  0  0  0  0  0  0  0
   -3.7021   -1.9014   -1.9984 H   0  0  0  0  0  0  0  0  0  0  0  0
    3.7532    3.6504    1.2356 H   0  0  0  0  0  0  0  0  0  0  0  0
   -2.1639   -3.3648   -3.2605 H   0  0  0  0  0  0  0  0  0  0  0  0
   -0.0904   -4.2044   -2.2002 H   0  0  0  0  0  0  0  0  0  0  0  0
    2.2634    0.3486   -2.8283 H   0  0  0  0  0  0  0  0  0  0  0  0
    5.2169    2.1774   -0.7952 H   0  0  0  0  0  0  0  0  0  0  0  0
    1.0910   -1.7808    1.0395 H   0  0  0  0  0  0  0  0  0  0  0  0
    0.8619   -3.1028    2.2345 H   0  0  0  0  0  0  0  0  0  0  0  0
    3.1438   -3.1739    0.2048 H   0  0  0  0  0  0  0  0  0  0  0  0
    3.3462   -0.9626    1.4038 H   0  0  0  0  0  0  0  0  0  0  0  0
    4.6038   -2.1035    1.9247 H   0  0  0  0  0  0  0  0  0  0  0  0
    3.2144   -1.8145    2.9613 H   0  0  0  0  0  0  0  0  0  0  0  0
    4.0391   -4.4046    1.8967 H   0  0  0  0  0  0  0  0  0  0  0  0
  1 20  1  0  0  0  0
  1 26  1  0  0  0  0
  2 27  1  0  0  0  0
  2 56  1  0  0  0  0
  3  9  1  0  0  0  0
  3 11  1  0  0  0  0
  3 12  1  0  0  0  0
  4  7  1  0  0  0  0
  4 14  1  0  0  0  0
  4 40  1  0  0  0  0
  5  6  1  0  0  0  0
  5 21  1  0  0  0  0
  5 49  1  0  0  0  0
  6 25  2  0  0  0  0
  7  8  1  0  0  0  0
  7  9  1  0  0  0  0
  7 29  1  0  0  0  0
  8 10  1  0  0  0  0
  8 30  1  0  0  0  0
  8 31  1  0  0  0  0
  9 32  1  0  0  0  0
  9 33  1  0  0  0  0
 10 11  1  0  0  0  0
 10 34  1  0  0  0  0
 10 35  1  0  0  0  0
 11 36  1  0  0  0  0
 11 37  1  0  0  0  0
 12 13  1  0  0  0  0
 12 38  1  0  0  0  0
 12 39  1  0  0  0  0
 13 16  2  0  0  0  0
 13 18  1  0  0  0  0
 14 15  2  0  0  0  0
 14 17  1  0  0  0  0
 15 19  1  0  0  0  0
 15 41  1  0  0  0  0
 16 20  1  0  0  0  0
 16 42  1  0  0  0  0
 17 22  2  0  0  0  0
 17 43  1  0  0  0  0
 18 23  2  0  0  0  0
 18 44  1  0  0  0  0
 19 21  2  0  0  0  0
 19 25  1  0  0  0  0
 20 24  2  0  0  0  0
 21 22  1  0  0  0  0
 22 45  1  0  0  0  0
 23 24  1  0  0  0  0
 23 46  1  0  0  0  0
 24 47  1  0  0  0  0
 25 48  1  0  0  0  0
 26 27  1  0  0  0  0
 26 50  1  0  0  0  0
 26 51  1  0  0  0  0
 27 28  1  0  0  0  0
 27 52  1  0  0  0  0
 28 53  1  0  0  0  0
 28 54  1  0  0  0  0
 28 55  1  0  0  0  0
M  END
> <PUBCHEM_COMPOUND_CID>
25010430

> <PUBCHEM_CONFORMER_RMSD>
1

> <PUBCHEM_CONFORMER_DIVERSEORDER>
1
163
220
204
202
121
13
104
149
25
185
107
150
66
215
81
171
115
183
254
135
114
172
252
136
151
261
191
253
71
106
168
89
59
64
210
8
221
148
233
196
137
264
175
74
249
48
223
91
257
146
22
224
227
110
216
181
147
194
213
180
193
230
96
32
262
203
63
236
248
98
127
57
266
153
198
70
102
234
154
130
3
128
232
187
78
188
90
103
113
142
214
173
178
206
199
37
99
49
144
16
201
211
133
61
88
77
195
83
116
251
79
159
158
231
69
122
242
112
176
84
108
218
247
152
246
186
126
2
131
109
87
68
243
54
166
200
263
162
197
43
118
182
138
156
100
92
177
30
75
97
38
56
73
124
226
4
265
35
237
260
207
5
120
111
192
65
125
164
259
134
189
205
31
53
222
255
217
95
18
244
20
9
101
17
169
93
184
28
19
209
72
219
157
117
105
23
238
258
119
228
267
167
212
76
33
240
245
250
241
24
94
45
86
52
225
85
82
235
50
46
7
67
132
34
42
143
129
179
170
256
229
62
58
51
160
47
6
141
15
11
140
36
10
165
139
29
39
239
40
44
27
208
55
190
145
123
161
14
60
80
21
41
12
155
174
26

> <PUBCHEM_MMFF94_PARTIAL_CHARGES>
35
1 -0.36
11 0.27
12 0.41
13 -0.14
14 0.1
15 -0.15
16 -0.15
17 -0.15
18 -0.15
2 -0.68
20 0.08
21 -0.15
22 -0.15
23 -0.15
24 -0.15
25 0.14
26 0.28
27 0.28
3 -0.81
4 -0.87
40 0.4
41 0.15
42 0.15
43 0.15
44 0.15
45 0.15
46 0.15
47 0.15
48 0.15
49 0.27
5 0.3
56 0.4
6 -0.71
7 0.37
9 0.27

> <PUBCHEM_EFFECTIVE_ROTOR_COUNT>
8.2

> <PUBCHEM_PHARMACOPHORE_FEATURES>
12
1 1 acceptor
1 2 acceptor
1 2 donor
1 3 cation
1 4 cation
1 4 donor
1 5 donor
1 6 acceptor
5 5 6 19 21 25 rings
6 13 16 18 20 23 24 rings
6 14 15 17 19 21 22 rings
6 3 7 8 9 10 11 rings

> <PUBCHEM_HEAVY_ATOM_COUNT>
28

> <PUBCHEM_ATOM_DEF_STEREO_COUNT>
2

> <PUBCHEM_ATOM_UDEF_STEREO_COUNT>
0

> <PUBCHEM_BOND_DEF_STEREO_COUNT>
0

> <PUBCHEM_BOND_UDEF_STEREO_COUNT>
0

> <PUBCHEM_ISOTOPIC_ATOM_COUNT>
0

> <PUBCHEM_COMPONENT_COUNT>
1

> <PUBCHEM_CACTVS_TAUTO_COUNT>
2

> <PUBCHEM_CONFORMER_ID>
017DA0FE00000001

> <PUBCHEM_MMFF94_ENERGY>
73.4511

> <PUBCHEM_FEATURE_SELFOVERLAP>
60.989

> <PUBCHEM_SHAPE_FINGERPRINT>
10006869 2 18339928220849567875
1100329 8 18338802200102755710
11513181 2 17987224539591036014
11828532 37 14943898881051034722
12156800 1 16557028295717377639
12202916 173 16831758034890226870
12553582 1 17115522190589071045
12788726 201 17978792642367414320
140371 6 17547015126652062689
14114206 34 17904486555487405212
14117953 113 17327737293045480612
14251757 5 17907329841212756004
14659021 117 17836924864817602248
14725015 67 17836360827957607587
15297060 5 17771631152992032810
15403338 16 17027687236021089163
15463212 79 18263091074591223637
15840311 113 15902347960362101049
15961568 22 17547007425359047267
17627616 140 18408886230545095822
22113638 7 18123738769101914915
3298306 158 18339370673621782445
474144 1 18044388136244172638
5282940 2 18334018272096784410
57091435 65 18408045099902249114
57527585 103 16893711129753887402
6287921 2 16974777546411760210
9709674 26 17768820010591447877
9982175 49 18040991874297626448

> <PUBCHEM_SHAPE_MULTIPOLES>
544.56
7.68
7.03
1.88
1
3.65
0.6
-3.68
0.85
0.25
-2.2
1.47
1.6
-3.52

> <PUBCHEM_SHAPE_SELFOVERLAP>
1166.39

> <PUBCHEM_SHAPE_VOLUME>
302.6

> <PUBCHEM_COORDINATE_TYPE>
2
5
10

$$$$
91663787
  -OEChem-05102415123D

 54 57  0     1  0  0  0  0  0999 V2000
    3.8734    1.4884   -0.1520 O   0  0  0  0  0  0  0  0  0  0  0  0
    3.6314    2.2990    3.3952 O   0  0  0  0  0  0  0  0  0  0  0  0
    2.9712    3.5496    1.5320 O   0  0  0  0  0  0  0  0  0  0  0  0
    0.8692   -2.7961    0.0403 N   0  0  1  0  0  0  0  0  0  0  0  0
   -2.7383   -1.9796    0.5656 N   0  0  0  0  0  0  0  0  0  0  0  0
   -4.0740    3.2223   -0.5190 N   0  0  0  0  0  0  0  0  0  0  0  0
   -2.9272    3.8978   -0.3365 N   0  0  0  0  0  0  0  0  0  0  0  0
   -1.3866   -2.3282    0.9477 C   0  0  1  0  0  0  0  0  0  0  0  0
   -1.3877   -3.6688    1.6821 C   0  0  0  0  0  0  0  0  0  0  0  0
   -0.5003   -2.3849   -0.3024 C   0  0  0  0  0  0  0  0  0  0  0  0
    0.0416   -4.1233    1.9575 C   0  0  0  0  0  0  0  0  0  0  0  0
    0.8820   -4.1192    0.6797 C   0  0  0  0  0  0  0  0  0  0  0  0
    1.7174   -2.7954   -1.1513 C   0  0  0  0  0  0  0  0  0  0  0  0
    2.1201   -1.4012   -1.5522 C   0  0  0  0  0  0  0  0  0  0  0  0
   -3.1438   -0.6881    0.2782 C   0  0  0  0  0  0  0  0  0  0  0  0
   -2.2147    0.3572    0.3538 C   0  0  0  0  0  0  0  0  0  0  0  0
    2.8193   -0.5925   -0.6562 C   0  0  0  0  0  0  0  0  0  0  0  0
   -4.4704   -0.4451   -0.0823 C   0  0  0  0  0  0  0  0  0  0  0  0
    1.7933   -0.9178   -2.8193 C   0  0  0  0  0  0  0  0  0  0  0  0
   -2.6462    1.6611    0.0581 C   0  0  0  0  0  0  0  0  0  0  0  0
   -3.9730    1.8751   -0.2982 C   0  0  0  0  0  0  0  0  0  0  0  0
   -4.9150    0.8474   -0.3795 C   0  0  0  0  0  0  0  0  0  0  0  0
    3.1919    0.6994   -1.0270 C   0  0  0  0  0  0  0  0  0  0  0  0
    2.1657    0.3744   -3.1901 C   0  0  0  0  0  0  0  0  0  0  0  0
    2.8652    1.1829   -2.2942 C   0  0  0  0  0  0  0  0  0  0  0  0
   -2.0609    2.9447    0.0146 C   0  0  0  0  0  0  0  0  0  0  0  0
    3.6277    1.2786    1.2379 C   0  0  0  0  0  0  0  0  0  0  0  0
    3.8686    2.5623    2.0178 C   0  0  0  0  0  0  0  0  0  0  0  0
   -0.9843   -1.5982    1.6624 H   0  0  0  0  0  0  0  0  0  0  0  0
   -1.8998   -4.4313    1.0804 H   0  0  0  0  0  0  0  0  0  0  0  0
   -1.9440   -3.5890    2.6238 H   0  0  0  0  0  0  0  0  0  0  0  0
   -0.9378   -3.0811   -1.0329 H   0  0  0  0  0  0  0  0  0  0  0  0
   -0.4830   -1.4056   -0.7904 H   0  0  0  0  0  0  0  0  0  0  0  0
    0.5000   -3.4597    2.7017 H   0  0  0  0  0  0  0  0  0  0  0  0
    0.0318   -5.1300    2.3905 H   0  0  0  0  0  0  0  0  0  0  0  0
    0.5107   -4.8891   -0.0096 H   0  0  0  0  0  0  0  0  0  0  0  0
    1.9089   -4.3925    0.9517 H   0  0  0  0  0  0  0  0  0  0  0  0
    1.2394   -3.3301   -1.9831 H   0  0  0  0  0  0  0  0  0  0  0  0
    2.6549   -3.3339   -0.9533 H   0  0  0  0  0  0  0  0  0  0  0  0
   -3.4107   -2.7266    0.4294 H   0  0  0  0  0  0  0  0  0  0  0  0
   -1.1774    0.2261    0.6354 H   0  0  0  0  0  0  0  0  0  0  0  0
    3.0897   -1.0060    0.3114 H   0  0  0  0  0  0  0  0  0  0  0  0
   -5.1833   -1.2655   -0.1375 H   0  0  0  0  0  0  0  0  0  0  0  0
    1.2475   -1.5358   -3.5271 H   0  0  0  0  0  0  0  0  0  0  0  0
   -5.9449    1.0381   -0.6597 H   0  0  0  0  0  0  0  0  0  0  0  0
    1.9105    0.7512   -4.1762 H   0  0  0  0  0  0  0  0  0  0  0  0
    3.1521    2.1888   -2.5884 H   0  0  0  0  0  0  0  0  0  0  0  0
   -1.0378    3.2233    0.2244 H   0  0  0  0  0  0  0  0  0  0  0  0
   -4.8965    3.7433   -0.7963 H   0  0  0  0  0  0  0  0  0  0  0  0
    2.5862    0.9739    1.4130 H   0  0  0  0  0  0  0  0  0  0  0  0
    4.2889    0.4883    1.6133 H   0  0  0  0  0  0  0  0  0  0  0  0
    4.8975    2.9091    1.8695 H   0  0  0  0  0  0  0  0  0  0  0  0
    4.1249    2.9664    3.9013 H   0  0  0  0  0  0  0  0  0  0  0  0
    3.3561    4.4162    1.7464 H   0  0  0  0  0  0  0  0  0  0  0  0
  1 23  1  0  0  0  0
  1 27  1  0  0  0  0
  2 28  1  0  0  0  0
  2 53  1  0  0  0  0
  3 28  1  0  0  0  0
  3 54  1  0  0  0  0
  4 10  1  0  0  0  0
  4 12  1  0  0  0  0
  4 13  1  0  0  0  0
  5  8  1  0  0  0  0
  5 15  1  0  0  0  0
  5 40  1  0  0  0  0
  6  7  1  0  0  0  0
  6 21  1  0  0  0  0
  6 49  1  0  0  0  0
  7 26  2  0  0  0  0
  8  9  1  0  0  0  0
  8 10  1  0  0  0  0
  8 29  1  0  0  0  0
  9 11  1  0  0  0  0
  9 30  1  0  0  0  0
  9 31  1  0  0  0  0
 10 32  1  0  0  0  0
 10 33  1  0  0  0  0
 11 12  1  0  0  0  0
 11 34  1  0  0  0  0
 11 35  1  0  0  0  0
 12 36  1  0  0  0  0
 12 37  1  0  0  0  0
 13 14  1  0  0  0  0
 13 38  1  0  0  0  0
 13 39  1  0  0  0  0
 14 17  2  0  0  0  0
 14 19  1  0  0  0  0
 15 16  2  0  0  0  0
 15 18  1  0  0  0  0
 16 20  1  0  0  0  0
 16 41  1  0  0  0  0
 17 23  1  0  0  0  0
 17 42  1  0  0  0  0
 18 22  2  0  0  0  0
 18 43  1  0  0  0  0
 19 24  2  0  0  0  0
 19 44  1  0  0  0  0
 20 21  2  0  0  0  0
 20 26  1  0  0  0  0
 21 22  1  0  0  0  0
 22 45  1  0  0  0  0
 23 25  2  0  0  0  0
 24 25  1  0  0  0  0
 24 46  1  0  0  0  0
 25 47  1  0  0  0  0
 26 48  1  0  0  0  0
 27 28  1  0  0  0  0
 27 50  1  0  0  0  0
 27 51  1  0  0  0  0
 28 52  1  0  0  0  0
M  END
> <PUBCHEM_COMPOUND_CID>
91663787

> <PUBCHEM_CONFORMER_RMSD>
1

> <PUBCHEM_CONFORMER_DIVERSEORDER>
1
50
120
179
198
42
83
127
46
66
174
168
107
81
106
154
111
72
136
157
188
184
18
86
148
60
88
76
158
191
193
123
137
138
100
161
145
201
140
101
113
69
93
109
135
44
178
122
61
52
197
164
98
125
38
153
118
104
17
96
108
180
139
95
74
203
189
94
24
192
39
159
34
11
162
129
105
119
92
59
131
79
177
63
87
126
47
30
14
199
49
134
160
186
4
143
115
28
80
91
77
182
71
141
41
19
185
48
176
62
196
170
27
169
202
32
25
156
144
187
70
130
99
114
67
167
121
103
35
9
142
33
165
12
3
152
116
112
173
56
97
166
147
149
6
20
204
181
124
194
132
117
175
68
2
89
23
110
78
151
200
172
150
8
195
155
82
64
128
26
190
54
53
84
163
55
40
146
22
171
58
29
90
102
31
43
51
183
21
5
7
57
16
10
36
65
73
15
75
133
85
13
45
37

> <PUBCHEM_MMFF94_PARTIAL_CHARGES>
37
1 -0.36
10 0.27
12 0.27
13 0.41
14 -0.14
15 0.1
16 -0.15
17 -0.15
18 -0.15
19 -0.15
2 -0.68
21 -0.15
22 -0.15
23 0.08
24 -0.15
25 -0.15
26 0.14
27 0.28
28 0.56
3 -0.68
4 -0.81
40 0.4
41 0.15
42 0.15
43 0.15
44 0.15
45 0.15
46 0.15
47 0.15
48 0.15
49 0.27
5 -0.87
53 0.4
54 0.4
6 0.3
7 -0.71
8 0.37

> <PUBCHEM_EFFECTIVE_ROTOR_COUNT>
8.2

> <PUBCHEM_PHARMACOPHORE_FEATURES>
14
1 1 acceptor
1 2 acceptor
1 2 donor
1 3 acceptor
1 3 donor
1 4 cation
1 5 cation
1 5 donor
1 6 donor
1 7 acceptor
5 6 7 20 21 26 rings
6 14 17 19 23 24 25 rings
6 15 16 18 20 21 22 rings
6 4 8 9 10 11 12 rings

> <PUBCHEM_HEAVY_ATOM_COUNT>
28

> <PUBCHEM_ATOM_DEF_STEREO_COUNT>
1

> <PUBCHEM_ATOM_UDEF_STEREO_COUNT>
0

> <PUBCHEM_BOND_DEF_STEREO_COUNT>
0

> <PUBCHEM_BOND_UDEF_STEREO_COUNT>
0

> <PUBCHEM_ISOTOPIC_ATOM_COUNT>
0

> <PUBCHEM_COMPONENT_COUNT>
1

> <PUBCHEM_CACTVS_TAUTO_COUNT>
2

> <PUBCHEM_CONFORMER_ID>
0576ADAB00000001

> <PUBCHEM_MMFF94_ENERGY>
69.7723

> <PUBCHEM_FEATURE_SELFOVERLAP>
71.227

> <PUBCHEM_SHAPE_FINGERPRINT>
10439779 11 18045777888545179514
10764073 3 18120357780328449590
11582403 64 18059846307632025710
11725454 13 17916865845673410134
12100795 323 17409922961318482880
12128747 34 18412543254460751210
12788726 201 17245854892593759787
13402501 40 18129663143948122032
13617811 41 18260269638657393725
13726171 33 17684966830057019461
14950920 106 17467035950942171128
161222 619 17628639957404203657
17980427 23 17762031269746697071
20567600 299 17760084017278370759
20764821 26 17976552924597017245
21591340 35 18051697646174228120
22749437 52 18115605767759686175
23559900 14 18338242557089854805
238 59 17275110543819773112
3187 122 17690844883527146251
469060 322 17901423213699066819
474 4 17533802415701229423
550186 7 18052818337024296528
57124632 79 18043531607769101053
60111433 81 17406804330062904056
6328613 192 17968960634094826646
84936 182 18118976793001146455
9981440 41 18186811274635601331

> <PUBCHEM_SHAPE_MULTIPOLES>
538.69
8.72
5.89
2.62
4.54
2.43
-0.01
-8.5
0.37
0.61
3.55
-4.54
-0.87
3.14

> <PUBCHEM_SHAPE_SELFOVERLAP>
1157.867

> <PUBCHEM_SHAPE_VOLUME>
297.1

> <PUBCHEM_COORDINATE_TYPE>
2
5
10

$$$$
25010432
  -OEChem-05102415123D

 56 59  0     1  0  0  0  0  0999 V2000
   -4.1293   -0.0187   -0.1095 O   0  0  0  0  0  0  0  0  0  0  0  0
   -3.9071   -2.7567   -0.5065 O   0  0  0  0  0  0  0  0  0  0  0  0
    0.7673    3.1747   -0.1005 N   0  0  1  0  0  0  0  0  0  0  0  0
    3.1410    0.4468   -1.0388 N   0  0  0  0  0  0  0  0  0  0  0  0
    1.7659   -4.5067    0.8551 N   0  0  0  0  0  0  0  0  0  0  0  0
    1.0272   -4.2448    1.9462 N   0  0  0  0  0  0  0  0  0  0  0  0
    2.6965    1.6441   -0.3581 C   0  0  1  0  0  0  0  0  0  0  0  0
    3.5988    2.8182   -0.7376 C   0  0  0  0  0  0  0  0  0  0  0  0
    1.2356    1.9296   -0.7270 C   0  0  0  0  0  0  0  0  0  0  0  0
    3.0549    4.1160   -0.1502 C   0  0  0  0  0  0  0  0  0  0  0  0
    1.5852    4.3209   -0.5208 C   0  0  0  0  0  0  0  0  0  0  0  0
   -0.6417    3.4084   -0.4166 C   0  0  0  0  0  0  0  0  0  0  0  0
   -1.5526    2.5284    0.3975 C   0  0  0  0  0  0  0  0  0  0  0  0
    2.8315   -0.8331   -0.6151 C   0  0  0  0  0  0  0  0  0  0  0  0
    2.0473   -1.0076    0.5322 C   0  0  0  0  0  0  0  0  0  0  0  0
   -2.4302    1.6522   -0.2411 C   0  0  0  0  0  0  0  0  0  0  0  0
    3.3031   -1.9315   -1.3363 C   0  0  0  0  0  0  0  0  0  0  0  0
   -1.5187    2.5894    1.7907 C   0  0  0  0  0  0  0  0  0  0  0  0
    1.7434   -2.3157    0.9447 C   0  0  0  0  0  0  0  0  0  0  0  0
   -3.2737    0.8368    0.5133 C   0  0  0  0  0  0  0  0  0  0  0  0
    2.2260   -3.3916    0.2080 C   0  0  0  0  0  0  0  0  0  0  0  0
    3.0091   -3.2397   -0.9384 C   0  0  0  0  0  0  0  0  0  0  0  0
   -2.3623    1.7741    2.5452 C   0  0  0  0  0  0  0  0  0  0  0  0
   -3.2397    0.8979    1.9065 C   0  0  0  0  0  0  0  0  0  0  0  0
    1.0159   -2.9109    1.9976 C   0  0  0  0  0  0  0  0  0  0  0  0
   -3.7235   -0.5358   -1.3759 C   0  0  0  0  0  0  0  0  0  0  0  0
   -4.3454   -1.9128   -1.5702 C   0  0  1  0  0  0  0  0  0  0  0  0
   -3.9244   -2.5317   -2.8945 C   0  0  0  0  0  0  0  0  0  0  0  0
    2.7961    1.5323    0.7296 H   0  0  0  0  0  0  0  0  0  0  0  0
    4.6218    2.6454   -0.3824 H   0  0  0  0  0  0  0  0  0  0  0  0
    3.6593    2.9134   -1.8299 H   0  0  0  0  0  0  0  0  0  0  0  0
    1.1371    1.9906   -1.8207 H   0  0  0  0  0  0  0  0  0  0  0  0
    0.6023    1.0945   -0.4125 H   0  0  0  0  0  0  0  0  0  0  0  0
    3.6491    4.9626   -0.5123 H   0  0  0  0  0  0  0  0  0  0  0  0
    3.1598    4.0959    0.9420 H   0  0  0  0  0  0  0  0  0  0  0  0
    1.4965    4.4879   -1.6024 H   0  0  0  0  0  0  0  0  0  0  0  0
    1.2362    5.2323   -0.0202 H   0  0  0  0  0  0  0  0  0  0  0  0
   -0.8330    3.3010   -1.4927 H   0  0  0  0  0  0  0  0  0  0  0  0
   -0.9222    4.4417   -0.1682 H   0  0  0  0  0  0  0  0  0  0  0  0
    3.6458    0.5459   -1.9128 H   0  0  0  0  0  0  0  0  0  0  0  0
    1.6628   -0.1926    1.1324 H   0  0  0  0  0  0  0  0  0  0  0  0
   -2.4548    1.6445   -1.3271 H   0  0  0  0  0  0  0  0  0  0  0  0
    3.9116   -1.7835   -2.2263 H   0  0  0  0  0  0  0  0  0  0  0  0
   -0.8443    3.2707    2.3025 H   0  0  0  0  0  0  0  0  0  0  0  0
    3.3744   -4.0941   -1.4973 H   0  0  0  0  0  0  0  0  0  0  0  0
   -2.3366    1.8222    3.6300 H   0  0  0  0  0  0  0  0  0  0  0  0
   -3.8942    0.2648    2.4994 H   0  0  0  0  0  0  0  0  0  0  0  0
    0.4775   -2.4259    2.7997 H   0  0  0  0  0  0  0  0  0  0  0  0
    1.9201   -5.4750    0.6036 H   0  0  0  0  0  0  0  0  0  0  0  0
   -4.0543    0.1457   -2.1678 H   0  0  0  0  0  0  0  0  0  0  0  0
   -2.6318   -0.6509   -1.4159 H   0  0  0  0  0  0  0  0  0  0  0  0
   -5.4366   -1.8434   -1.5032 H   0  0  0  0  0  0  0  0  0  0  0  0
   -4.2340   -1.9099   -3.7399 H   0  0  0  0  0  0  0  0  0  0  0  0
   -4.3712   -3.5249   -3.0118 H   0  0  0  0  0  0  0  0  0  0  0  0
   -2.8383   -2.6698   -2.9371 H   0  0  0  0  0  0  0  0  0  0  0  0
   -4.3217   -3.6271   -0.6334 H   0  0  0  0  0  0  0  0  0  0  0  0
  1 20  1  0  0  0  0
  1 26  1  0  0  0  0
  2 27  1  0  0  0  0
  2 56  1  0  0  0  0
  3  9  1  0  0  0  0
  3 11  1  0  0  0  0
  3 12  1  0  0  0  0
  4  7  1  0  0  0  0
  4 14  1  0  0  0  0
  4 40  1  0  0  0  0
  5  6  1  0  0  0  0
  5 21  1  0  0  0  0
  5 49  1  0  0  0  0
  6 25  2  0  0  0  0
  7  8  1  0  0  0  0
  7  9  1  0  0  0  0
  7 29  1  0  0  0  0
  8 10  1  0  0  0  0
  8 30  1  0  0  0  0
  8 31  1  0  0  0  0
  9 32  1  0  0  0  0
  9 33  1  0  0  0  0
 10 11  1  0  0  0  0
 10 34  1  0  0  0  0
 10 35  1  0  0  0  0
 11 36  1  0  0  0  0
 11 37  1  0  0  0  0
 12 13  1  0  0  0  0
 12 38  1  0  0  0  0
 12 39  1  0  0  0  0
 13 16  2  0  0  0  0
 13 18  1  0  0  0  0
 14 15  2  0  0  0  0
 14 17  1  0  0  0  0
 15 19  1  0  0  0  0
 15 41  1  0  0  0  0
 16 20  1  0  0  0  0
 16 42  1  0  0  0  0
 17 22  2  0  0  0  0
 17 43  1  0  0  0  0
 18 23  2  0  0  0  0
 18 44  1  0  0  0  0
 19 21  2  0  0  0  0
 19 25  1  0  0  0  0
 20 24  2  0  0  0  0
 21 22  1  0  0  0  0
 22 45  1  0  0  0  0
 23 24  1  0  0  0  0
 23 46  1  0  0  0  0
 24 47  1  0  0  0  0
 25 48  1  0  0  0  0
 26 27  1  0  0  0  0
 26 50  1  0  0  0  0
 26 51  1  0  0  0  0
 27 28  1  0  0  0  0
 27 52  1  0  0  0  0
 28 53  1  0  0  0  0
 28 54  1  0  0  0  0
 28 55  1  0  0  0  0
M  END
> <PUBCHEM_COMPOUND_CID>
25010432

> <PUBCHEM_CONFORMER_RMSD>
1

> <PUBCHEM_CONFORMER_DIVERSEORDER>
1
8
233
239
198
237
152
141
45
137
57
166
127
248
142
244
171
32
143
80
118
215
212
188
10
92
213
162
186
114
117
140
190
72
113
91
55
79
93
65
129
220
247
206
56
205
229
163
246
95
34
35
103
86
105
131
227
214
165
62
217
170
210
159
174
156
23
66
179
135
126
69
38
155
130
172
184
89
132
133
76
77
203
149
218
173
13
100
182
201
37
24
167
183
98
164
119
196
47
225
238
245
59
99
2
169
116
104
123
25
124
108
73
199
219
160
122
145
139
222
40
175
48
52
231
202
29
75
185
235
189
180
223
3
109
226
50
216
54
193
204
181
82
147
221
158
153
176
236
51
68
67
14
157
146
242
101
177
42
241
232
18
120
207
121
125
84
136
78
6
90
243
209
43
26
240
83
144
36
64
71
70
27
85
44
208
4
187
224
195
102
161
7
107
17
30
106
39
150
228
134
87
96
49
230
111
128
15
194
28
5
197
192
200
151
211
33
154
178
112
41
81
53
11
148
19
58
74
61
46
115
21
12
234
20
168
16
31
94
97
9
138
88
22
60
110
191
63

> <PUBCHEM_MMFF94_PARTIAL_CHARGES>
35
1 -0.36
11 0.27
12 0.41
13 -0.14
14 0.1
15 -0.15
16 -0.15
17 -0.15
18 -0.15
2 -0.68
20 0.08
21 -0.15
22 -0.15
23 -0.15
24 -0.15
25 0.14
26 0.28
27 0.28
3 -0.81
4 -0.87
40 0.4
41 0.15
42 0.15
43 0.15
44 0.15
45 0.15
46 0.15
47 0.15
48 0.15
49 0.27
5 0.3
56 0.4
6 -0.71
7 0.37
9 0.27

> <PUBCHEM_EFFECTIVE_ROTOR_COUNT>
8.2

> <PUBCHEM_PHARMACOPHORE_FEATURES>
12
1 1 acceptor
1 2 acceptor
1 2 donor
1 3 cation
1 4 cation
1 4 donor
1 5 donor
1 6 acceptor
5 5 6 19 21 25 rings
6 13 16 18 20 23 24 rings
6 14 15 17 19 21 22 rings
6 3 7 8 9 10 11 rings

> <PUBCHEM_HEAVY_ATOM_COUNT>
28

> <PUBCHEM_ATOM_DEF_STEREO_COUNT>
2

> <PUBCHEM_ATOM_UDEF_STEREO_COUNT>
0

> <PUBCHEM_BOND_DEF_STEREO_COUNT>
0

> <PUBCHEM_BOND_UDEF_STEREO_COUNT>
0

> <PUBCHEM_ISOTOPIC_ATOM_COUNT>
0

> <PUBCHEM_COMPONENT_COUNT>
1

> <PUBCHEM_CACTVS_TAUTO_COUNT>
2

> <PUBCHEM_CONFORMER_ID>
017DA10000000001

> <PUBCHEM_MMFF94_ENERGY>
73.9436

> <PUBCHEM_FEATURE_SELFOVERLAP>
60.992

> <PUBCHEM_SHAPE_FINGERPRINT>
10462674 296 18199182884819208375
11427363 43 17398907671863864983
12156800 1 16826399006336602864
12539773 59 17912944785318730113
12553582 1 17830187804839194104
13402501 40 17183064081739902147
14844126 61 17253703881324124986
152267 14 17905039253586245566
15403338 16 16668546009393680713
17138139 8 17482260913694040877
17974551 9 14615743497562146516
19026451 147 18267281275050672015
20028762 73 18200310060894956636
20764821 26 18118713086314267034
20775438 99 17760035789212469885
20775530 9 18271233933573980447
238 59 18187925152659547465
4409770 3 17258224497585970176
4573279 73 18048047272920754726
463206 1 18336277733920875753
5080951 261 15876718331111947658
5309563 4 18046936803986380889
66674814 147 18048590718372019397

> <PUBCHEM_SHAPE_MULTIPOLES>
544.56
7.97
7.24
2.14
5.59
0.17
0.4
3.72
-3.11
-5.06
0.27
2.05
1.56
-3.98

> <PUBCHEM_SHAPE_SELFOVERLAP>
1166.749

> <PUBCHEM_SHAPE_VOLUME>
302.6

> <PUBCHEM_COORDINATE_TYPE>
2
5
10

$$$$
25008497
  -OEChem-05102415123D

 55 59  0     1  0  0  0  0  0999 V2000
    5.7607    1.4598   -2.2613 O   0  0  0  0  0  0  0  0  0  0  0  0
    3.5759    1.4972   -1.6384 O   0  0  0  0  0  0  0  0  0  0  0  0
   -1.3519   -3.0881   -0.2359 N   0  0  2  0  0  0  0  0  0  0  0  0
   -3.9221   -0.3854    0.0454 N   0  0  0  0  0  0  0  0  0  0  0  0
    4.0699    0.0570    0.6565 N   0  0  0  0  0  0  0  0  0  0  0  0
   -1.8835    4.6973    0.2037 N   0  0  0  0  0  0  0  0  0  0  0  0
   -0.7022    4.5943   -0.4279 N   0  0  0  0  0  0  0  0  0  0  0  0
   -3.1823   -1.4559   -0.5904 C   0  0  1  0  0  0  0  0  0  0  0  0
   -2.0822   -1.9570    0.3547 C   0  0  0  0  0  0  0  0  0  0  0  0
   -4.1384   -2.5892   -0.9643 C   0  0  0  0  0  0  0  0  0  0  0  0
   -3.3611   -3.7879   -1.4968 C   0  0  0  0  0  0  0  0  0  0  0  0
   -2.2558   -4.2091   -0.5277 C   0  0  0  0  0  0  0  0  0  0  0  0
   -0.2716   -3.5195    0.6510 C   0  0  0  0  0  0  0  0  0  0  0  0
    0.9087   -2.5867    0.5923 C   0  0  0  0  0  0  0  0  0  0  0  0
   -3.4665    0.9185    0.1217 C   0  0  0  0  0  0  0  0  0  0  0  0
    1.1241   -1.6802    1.6366 C   0  0  0  0  0  0  0  0  0  0  0  0
    1.7742   -2.6365   -0.4987 C   0  0  0  0  0  0  0  0  0  0  0  0
    2.2320   -0.8117    1.5754 C   0  0  0  0  0  0  0  0  0  0  0  0
    3.0827   -0.8842    0.4702 C   0  0  0  0  0  0  0  0  0  0  0  0
   -2.2255    1.2478   -0.4378 C   0  0  0  0  0  0  0  0  0  0  0  0
    2.8799   -1.7852   -0.5811 C   0  0  0  0  0  0  0  0  0  0  0  0
   -4.2493    1.8869    0.7531 C   0  0  0  0  0  0  0  0  0  0  0  0
    2.7429    0.2053    2.4297 C   0  0  0  0  0  0  0  0  0  0  0  0
   -1.7819    2.5780   -0.3507 C   0  0  0  0  0  0  0  0  0  0  0  0
    3.8731    0.7205    1.8378 C   0  0  0  0  0  0  0  0  0  0  0  0
   -2.5813    3.5224    0.2837 C   0  0  0  0  0  0  0  0  0  0  0  0
   -3.8214    3.2151    0.8479 C   0  0  0  0  0  0  0  0  0  0  0  0
    5.1641    0.3196   -0.2537 C   0  0  0  0  0  0  0  0  0  0  0  0
   -0.6439    3.3036   -0.7635 C   0  0  0  0  0  0  0  0  0  0  0  0
    4.7326    1.1531   -1.4313 C   0  0  0  0  0  0  0  0  0  0  0  0
   -2.7409   -1.1149   -1.5362 H   0  0  0  0  0  0  0  0  0  0  0  0
   -1.3926   -1.1374    0.5725 H   0  0  0  0  0  0  0  0  0  0  0  0
   -2.5268   -2.2474    1.3177 H   0  0  0  0  0  0  0  0  0  0  0  0
   -4.7221   -2.8983   -0.0871 H   0  0  0  0  0  0  0  0  0  0  0  0
   -4.8612   -2.2477   -1.7150 H   0  0  0  0  0  0  0  0  0  0  0  0
   -2.9210   -3.5358   -2.4700 H   0  0  0  0  0  0  0  0  0  0  0  0
   -4.0458   -4.6270   -1.6640 H   0  0  0  0  0  0  0  0  0  0  0  0
   -1.6957   -5.0296   -0.9926 H   0  0  0  0  0  0  0  0  0  0  0  0
   -2.7028   -4.6005    0.3958 H   0  0  0  0  0  0  0  0  0  0  0  0
   -0.6213   -3.6494    1.6845 H   0  0  0  0  0  0  0  0  0  0  0  0
    0.0986   -4.5094    0.3485 H   0  0  0  0  0  0  0  0  0  0  0  0
   -4.7859   -0.6128    0.5257 H   0  0  0  0  0  0  0  0  0  0  0  0
    0.4497   -1.6407    2.4878 H   0  0  0  0  0  0  0  0  0  0  0  0
    1.5991   -3.3440   -1.3062 H   0  0  0  0  0  0  0  0  0  0  0  0
    3.5476   -1.8305   -1.4347 H   0  0  0  0  0  0  0  0  0  0  0  0
   -1.5830    0.5393   -0.9453 H   0  0  0  0  0  0  0  0  0  0  0  0
   -5.2122    1.6192    1.1837 H   0  0  0  0  0  0  0  0  0  0  0  0
    2.3288    0.5267    3.3755 H   0  0  0  0  0  0  0  0  0  0  0  0
    4.5457    1.5031    2.1625 H   0  0  0  0  0  0  0  0  0  0  0  0
   -4.4279    3.9686    1.3378 H   0  0  0  0  0  0  0  0  0  0  0  0
    5.9453    0.8536    0.2972 H   0  0  0  0  0  0  0  0  0  0  0  0
    5.5593   -0.6402   -0.5997 H   0  0  0  0  0  0  0  0  0  0  0  0
    0.2258    2.9431   -1.2945 H   0  0  0  0  0  0  0  0  0  0  0  0
   -2.1576    5.6046    0.5595 H   0  0  0  0  0  0  0  0  0  0  0  0
    5.4638    1.9907   -3.0309 H   0  0  0  0  0  0  0  0  0  0  0  0
  1 30  1  0  0  0  0
  1 55  1  0  0  0  0
  2 30  2  0  0  0  0
  3  9  1  0  0  0  0
  3 12  1  0  0  0  0
  3 13  1  0  0  0  0
  4  8  1  0  0  0  0
  4 15  1  0  0  0  0
  4 42  1  0  0  0  0
  5 19  1  0  0  0  0
  5 25  1  0  0  0  0
  5 28  1  0  0  0  0
  6  7  1  0  0  0  0
  6 26  1  0  0  0  0
  6 54  1  0  0  0  0
  7 29  2  0  0  0  0
  8  9  1  0  0  0  0
  8 10  1  0  0  0  0
  8 31  1  0  0  0  0
  9 32  1  0  0  0  0
  9 33  1  0  0  0  0
 10 11  1  0  0  0  0
 10 34  1  0  0  0  0
 10 35  1  0  0  0  0
 11 12  1  0  0  0  0
 11 36  1  0  0  0  0
 11 37  1  0  0  0  0
 12 38  1  0  0  0  0
 12 39  1  0  0  0  0
 13 14  1  0  0  0  0
 13 40  1  0  0  0  0
 13 41  1  0  0  0  0
 14 16  2  0  0  0  0
 14 17  1  0  0  0  0
 15 20  2  0  0  0  0
 15 22  1  0  0  0  0
 16 18  1  0  0  0  0
 16 43  1  0  0  0  0
 17 21  2  0  0  0  0
 17 44  1  0  0  0  0
 18 19  2  0  0  0  0
 18 23  1  0  0  0  0
 19 21  1  0  0  0  0
 20 24  1  0  0  0  0
 20 46  1  0  0  0  0
 21 45  1  0  0  0  0
 22 27  2  0  0  0  0
 22 47  1  0  0  0  0
 23 25  2  0  0  0  0
 23 48  1  0  0  0  0
 24 26  2  0  0  0  0
 24 29  1  0  0  0  0
 25 49  1  0  0  0  0
 26 27  1  0  0  0  0
 27 50  1  0  0  0  0
 28 30  1  0  0  0  0
 28 51  1  0  0  0  0
 28 52  1  0  0  0  0
 29 53  1  0  0  0  0
M  END
> <PUBCHEM_COMPOUND_CID>
25008497

> <PUBCHEM_CONFORMER_RMSD>
1

> <PUBCHEM_CONFORMER_DIVERSEORDER>
1
152
176
223
29
121
164
213
84
170
83
58
114
72
40
183
265
272
73
155
242
110
217
139
24
57
49
132
119
81
236
194
221
192
142
6
240
88
150
227
187
184
178
143
216
37
113
269
108
255
59
199
144
230
244
99
56
214
134
129
273
76
167
246
215
20
55
145
225
96
262
78
250
220
34
8
239
232
231
125
205
207
128
229
33
44
261
202
172
186
126
106
109
179
271
159
256
103
278
148
138
77
171
218
279
86
12
162
100
19
182
27
189
267
54
274
112
243
188
251
130
70
200
118
4
17
123
258
41
263
61
169
51
75
191
95
46
74
233
120
140
85
104
228
245
208
237
16
173
80
62
115
268
89
168
87
195
10
22
50
154
180
185
175
266
254
177
275
137
127
247
260
212
153
43
264
149
201
28
94
18
107
25
63
276
82
211
71
39
252
190
157
161
65
45
147
151
14
69
15
2
156
35
52
92
210
98
257
23
270
224
196
21
249
135
141
101
163
253
193
42
64
5
181
91
3
238
160
165
174
234
32
226
93
53
105
277
241
7
122
158
26
222
259
133
198
9
38
67
146
111
204
68
90
197
219
166
235
60
13
11
66
203
36
248
136
209
31
79
102
117
97
206
48
116
124
131
30
47

> <PUBCHEM_MMFF94_PARTIAL_CHARGES>
38
1 -0.65
12 0.27
13 0.41
14 -0.14
15 0.1
16 -0.15
17 -0.15
19 -0.15
2 -0.57
20 -0.15
21 -0.15
22 -0.15
23 -0.15
25 -0.3
26 -0.15
27 -0.15
28 0.32
29 0.14
3 -0.81
30 0.66
4 -0.87
42 0.4
43 0.15
44 0.15
45 0.15
46 0.15
47 0.15
48 0.15
49 0.15
5 0.05
50 0.15
53 0.15
54 0.27
55 0.5
6 0.3
7 -0.71
8 0.37
9 0.27

> <PUBCHEM_EFFECTIVE_ROTOR_COUNT>
7.2

> <PUBCHEM_PHARMACOPHORE_FEATURES>
14
1 1 acceptor
1 2 acceptor
1 3 cation
1 4 cation
1 4 donor
1 5 cation
1 6 donor
1 7 acceptor
3 1 2 30 anion
5 5 18 19 23 25 rings
5 6 7 24 26 29 rings
6 14 16 17 18 19 21 rings
6 15 20 22 24 26 27 rings
6 3 8 9 10 11 12 rings

> <PUBCHEM_HEAVY_ATOM_COUNT>
30

> <PUBCHEM_ATOM_DEF_STEREO_COUNT>
0

> <PUBCHEM_ATOM_UDEF_STEREO_COUNT>
1

> <PUBCHEM_BOND_DEF_STEREO_COUNT>
0

> <PUBCHEM_BOND_UDEF_STEREO_COUNT>
0

> <PUBCHEM_ISOTOPIC_ATOM_COUNT>
0

> <PUBCHEM_COMPONENT_COUNT>
1

> <PUBCHEM_CACTVS_TAUTO_COUNT>
2

> <PUBCHEM_CONFORMER_ID>
017D997100000001

> <PUBCHEM_MMFF94_ENERGY>
62.5823

> <PUBCHEM_FEATURE_SELFOVERLAP>
71.287

> <PUBCHEM_SHAPE_FINGERPRINT>
10006869 2 18265319622544062923
10256941 240 17470675054819690432
10369192 42 16626003027019360560
10498660 4 18338217315783385427
10670039 82 18336548308887982358
10871710 139 18410014347187852055
1100329 8 18266454507342510263
11059048 146 17838905832409606224
11211813 163 18337409149710465382
11410812 94 18266766700442547924
11513181 2 18198911314031145095
12553582 1 18338232803477159063
12788726 201 18335418014644085139
12925494 130 16467264918178118089
12978246 48 18262800640454924224
13615921 28 18050001387896149815
14114211 80 17985283884488011473
14363568 33 17326628388572531371
14725015 67 14661884090973665074
14840074 17 18040725744553548357
150020 26 16970822590407710433
15021287 119 17460018614441098706
151778 21 17692812584418522001
15274700 34 17606683514264106901
15297060 5 18342188734592227600
15351339 4 17613430460216817904
15419009 47 18196102041086026966
15961568 22 17836346517490587456
16067690 210 18266475376040177748
16992727 255 17618242611123558374
20764821 26 18051681157973990185
23559900 14 17471296149945126869
3610482 184 17898038874222544908
463206 1 18191310587896029437
469060 322 18338521949551019107
50150288 127 15950001218593114709
5252454 2 18199748051096027747
5776283 40 17979664267800374862
581034 39 18339641144670364274
5895379 119 18409166645345203990
6287921 2 18048318846936537428
6371009 1 17762870210008470555
6608658 132 18339356499749742526
6700243 42 17769405990592203454
7808743 9 18411138013447787978

> <PUBCHEM_SHAPE_MULTIPOLES>
580.74
10.13
6.6
1.67
8.13
1.68
0.16
3.37
-2.4
-8.19
-1.36
2.31
0.18
-2.61

> <PUBCHEM_SHAPE_SELFOVERLAP>
1278.885

> <PUBCHEM_SHAPE_VOLUME>
314.8

> <PUBCHEM_COORDINATE_TYPE>
2
5
10

$$$$
25010599
  -OEChem-05102415123D

 56 59  0     1  0  0  0  0  0999 V2000
    2.3998   -2.6394    1.0231 S   0  0  0  0  0  0  0  0  0  0  0  0
    3.3552   -3.3799    1.8258 O   0  0  0  0  0  0  0  0  0  0  0  0
    2.7711   -2.1314   -0.2826 O   0  0  0  0  0  0  0  0  0  0  0  0
   -3.5256   -0.0948   -0.1487 N   0  0  2  0  0  0  0  0  0  0  0  0
   -1.2370    2.6453    0.9667 N   0  0  0  0  0  0  0  0  0  0  0  0
    0.9401   -3.5493    0.9374 N   0  0  0  0  0  0  0  0  0  0  0  0
    3.8424    2.3472   -1.0645 N   0  0  0  0  0  0  0  0  0  0  0  0
    3.6951    1.6624   -2.2109 N   0  0  0  0  0  0  0  0  0  0  0  0
   -2.3497    2.0483    0.2576 C   0  0  1  0  0  0  0  0  0  0  0  0
   -2.3694    0.5343    0.5065 C   0  0  0  0  0  0  0  0  0  0  0  0
   -3.6574    2.6939    0.7173 C   0  0  0  0  0  0  0  0  0  0  0  0
   -4.8519    1.9782    0.0962 C   0  0  0  0  0  0  0  0  0  0  0  0
   -4.7883    0.4709    0.3456 C   0  0  0  0  0  0  0  0  0  0  0  0
   -3.5014   -1.5438    0.0504 C   0  0  0  0  0  0  0  0  0  0  0  0
   -2.2235   -2.1576   -0.4437 C   0  0  0  0  0  0  0  0  0  0  0  0
    0.0689    2.6064    0.5120 C   0  0  0  0  0  0  0  0  0  0  0  0
   -1.2475   -2.5637    0.4661 C   0  0  0  0  0  0  0  0  0  0  0  0
   -2.0123   -2.3217   -1.8128 C   0  0  0  0  0  0  0  0  0  0  0  0
    0.3578    1.9604   -0.6967 C   0  0  0  0  0  0  0  0  0  0  0  0
    1.0788    3.2118    1.2620 C   0  0  0  0  0  0  0  0  0  0  0  0
   -0.0602   -3.1340    0.0071 C   0  0  0  0  0  0  0  0  0  0  0  0
    1.6902    1.9335   -1.1413 C   0  0  0  0  0  0  0  0  0  0  0  0
    2.6765    2.5440   -0.3747 C   0  0  0  0  0  0  0  0  0  0  0  0
    2.4099    3.1933    0.8327 C   0  0  0  0  0  0  0  0  0  0  0  0
   -0.8249   -2.8918   -2.2718 C   0  0  0  0  0  0  0  0  0  0  0  0
    0.1511   -3.2980   -1.3619 C   0  0  0  0  0  0  0  0  0  0  0  0
    2.3846    1.4123   -2.2541 C   0  0  0  0  0  0  0  0  0  0  0  0
    1.8544   -1.2630    2.0093 C   0  0  0  0  0  0  0  0  0  0  0  0
    2.9734   -0.2740    2.2481 C   0  0  0  0  0  0  0  0  0  0  0  0
   -2.2793    2.2531   -0.8189 H   0  0  0  0  0  0  0  0  0  0  0  0
   -1.4315    0.1227    0.1288 H   0  0  0  0  0  0  0  0  0  0  0  0
   -2.3844    0.3355    1.5881 H   0  0  0  0  0  0  0  0  0  0  0  0
   -3.6750    3.7566    0.4467 H   0  0  0  0  0  0  0  0  0  0  0  0
   -3.7388    2.6491    1.8114 H   0  0  0  0  0  0  0  0  0  0  0  0
   -5.7816    2.3829    0.5118 H   0  0  0  0  0  0  0  0  0  0  0  0
   -4.8738    2.1721   -0.9837 H   0  0  0  0  0  0  0  0  0  0  0  0
   -4.9142    0.2707    1.4179 H   0  0  0  0  0  0  0  0  0  0  0  0
   -5.6332    0.0033   -0.1744 H   0  0  0  0  0  0  0  0  0  0  0  0
   -4.3346   -2.0100   -0.4924 H   0  0  0  0  0  0  0  0  0  0  0  0
   -3.6534   -1.7986    1.1086 H   0  0  0  0  0  0  0  0  0  0  0  0
   -1.4068    3.0498    1.8812 H   0  0  0  0  0  0  0  0  0  0  0  0
   -1.4080   -2.4350    1.5342 H   0  0  0  0  0  0  0  0  0  0  0  0
   -2.7654   -2.0096   -2.5315 H   0  0  0  0  0  0  0  0  0  0  0  0
   -0.3866    1.4839   -1.3221 H   0  0  0  0  0  0  0  0  0  0  0  0
    0.8423    3.7104    2.1999 H   0  0  0  0  0  0  0  0  0  0  0  0
    3.1959    3.6617    1.4144 H   0  0  0  0  0  0  0  0  0  0  0  0
   -0.6615   -3.0217   -3.3377 H   0  0  0  0  0  0  0  0  0  0  0  0
    1.0655   -3.7519   -1.7349 H   0  0  0  0  0  0  0  0  0  0  0  0
    0.5639   -3.8569    1.8443 H   0  0  0  0  0  0  0  0  0  0  0  0
    1.9880    0.8594   -3.0939 H   0  0  0  0  0  0  0  0  0  0  0  0
    4.7722    2.6541   -0.8073 H   0  0  0  0  0  0  0  0  0  0  0  0
    1.0378   -0.7693    1.4752 H   0  0  0  0  0  0  0  0  0  0  0  0
    1.4817   -1.6564    2.9596 H   0  0  0  0  0  0  0  0  0  0  0  0
    3.7933   -0.7368    2.8068 H   0  0  0  0  0  0  0  0  0  0  0  0
    3.3858    0.0956    1.3052 H   0  0  0  0  0  0  0  0  0  0  0  0
    2.6103    0.5808    2.8263 H   0  0  0  0  0  0  0  0  0  0  0  0
  1  2  2  0  0  0  0
  1  3  2  0  0  0  0
  1  6  1  0  0  0  0
  1 28  1  0  0  0  0
  4 10  1  0  0  0  0
  4 13  1  0  0  0  0
  4 14  1  0  0  0  0
  5  9  1  0  0  0  0
  5 16  1  0  0  0  0
  5 41  1  0  0  0  0
  6 21  1  0  0  0  0
  6 49  1  0  0  0  0
  7  8  1  0  0  0  0
  7 23  1  0  0  0  0
  7 51  1  0  0  0  0
  8 27  2  0  0  0  0
  9 10  1  0  0  0  0
  9 11  1  0  0  0  0
  9 30  1  0  0  0  0
 10 31  1  0  0  0  0
 10 32  1  0  0  0  0
 11 12  1  0  0  0  0
 11 33  1  0  0  0  0
 11 34  1  0  0  0  0
 12 13  1  0  0  0  0
 12 35  1  0  0  0  0
 12 36  1  0  0  0  0
 13 37  1  0  0  0  0
 13 38  1  0  0  0  0
 14 15  1  0  0  0  0
 14 39  1  0  0  0  0
 14 40  1  0  0  0  0
 15 17  2  0  0  0  0
 15 18  1  0  0  0  0
 16 19  2  0  0  0  0
 16 20  1  0  0  0  0
 17 21  1  0  0  0  0
 17 42  1  0  0  0  0
 18 25  2  0  0  0  0
 18 43  1  0  0  0  0
 19 22  1  0  0  0  0
 19 44  1  0  0  0  0
 20 24  2  0  0  0  0
 20 45  1  0  0  0  0
 21 26  2  0  0  0  0
 22 23  2  0  0  0  0
 22 27  1  0  0  0  0
 23 24  1  0  0  0  0
 24 46  1  0  0  0  0
 25 26  1  0  0  0  0
 25 47  1  0  0  0  0
 26 48  1  0  0  0  0
 27 50  1  0  0  0  0
 28 29  1  0  0  0  0
 28 52  1  0  0  0  0
 28 53  1  0  0  0  0
 29 54  1  0  0  0  0
 29 55  1  0  0  0  0
 29 56  1  0  0  0  0
M  END
> <PUBCHEM_COMPOUND_CID>
25010599

> <PUBCHEM_CONFORMER_RMSD>
1.2

> <PUBCHEM_CONFORMER_DIVERSEORDER>
1
264
152
123
100
175
153
114
75
148
149
200
97
258
247
267
260
238
160
125
87
127
30
184
204
198
63
140
259
221
141
113
162
275
50
180
220
144
83
157
241
278
85
233
251
86
91
82
174
191
256
13
76
2
276
224
203
41
201
242
92
96
281
230
252
177
248
69
12
79
158
178
163
199
274
133
104
234
217
213
250
229
111
90
124
102
55
46
128
170
210
6
47
73
216
166
34
130
145
169
56
192
39
52
62
218
236
235
143
225
115
51
45
207
222
181
171
214
126
132
44
88
231
80
131
280
48
139
154
106
84
164
120
10
95
109
206
187
119
134
179
32
253
243
246
272
183
26
205
196
94
255
239
173
74
38
245
161
67
136
186
172
168
176
65
190
101
105
24
3
19
277
49
279
249
135
7
58
71
11
14
31
142
33
185
89
165
54
25
116
72
57
211
122
4
262
16
29
215
35
99
112
244
43
64
194
22
202
268
110
167
146
138
78
107
209
226
93
70
273
118
121
156
270
77
271
212
240
61
81
227
151
36
188
137
5
98
18
265
263
266
40
208
59
261
257
269
103
195
8
28
155
23
182
37
150
66
223
147
53
9
129
117
21
232
42
197
17
237
193
68
159
254
20
60
189
228
15
108
219
27

> <PUBCHEM_MMFF94_PARTIAL_CHARGES>
36
1 1.33
10 0.27
13 0.27
14 0.41
15 -0.14
16 0.1
17 -0.15
18 -0.15
19 -0.15
2 -0.65
20 -0.15
21 0.2
23 -0.15
24 -0.15
25 -0.15
26 -0.15
27 0.14
28 0.11
3 -0.65
4 -0.81
41 0.4
42 0.15
43 0.15
44 0.15
45 0.15
46 0.15
47 0.15
48 0.15
49 0.42
5 -0.87
50 0.15
51 0.27
6 -0.76
7 0.3
8 -0.71
9 0.37

> <PUBCHEM_EFFECTIVE_ROTOR_COUNT>
8.2

> <PUBCHEM_PHARMACOPHORE_FEATURES>
12
1 2 acceptor
1 3 acceptor
1 4 cation
1 5 cation
1 5 donor
1 6 donor
1 7 donor
1 8 acceptor
5 7 8 22 23 27 rings
6 15 17 18 21 25 26 rings
6 16 19 20 22 23 24 rings
6 4 9 10 11 12 13 rings

> <PUBCHEM_HEAVY_ATOM_COUNT>
29

> <PUBCHEM_ATOM_DEF_STEREO_COUNT>
0

> <PUBCHEM_ATOM_UDEF_STEREO_COUNT>
1

> <PUBCHEM_BOND_DEF_STEREO_COUNT>
0

> <PUBCHEM_BOND_UDEF_STEREO_COUNT>
0

> <PUBCHEM_ISOTOPIC_ATOM_COUNT>
0

> <PUBCHEM_COMPONENT_COUNT>
1

> <PUBCHEM_CACTVS_TAUTO_COUNT>
2

> <PUBCHEM_CONFORMER_ID>
017DA1A700000001

> <PUBCHEM_MMFF94_ENERGY>
65.8673

> <PUBCHEM_FEATURE_SELFOVERLAP>
61.005

> <PUBCHEM_SHAPE_FINGERPRINT>
1100329 8 18338522941081334398
11513181 2 17988628688822131750
11828532 37 15233539926310287394
12156800 1 16341982542981333751
12202916 173 16400254722244354958
12293681 4 17041755968440399120
12788726 201 17690565603262860325
13122387 1 18267012865073636914
133893 2 17460005544095818266
13402501 40 17479160969492772843
14114206 34 17688586486722582269
14117953 113 17327738396915405301
14251757 17 17772495596527166012
14659021 117 17549818236836244236
14725015 67 17547849015473458227
14932701 244 15517341387561561980
15297060 5 17916593007860081826
15463212 79 18118692242727930717
15840311 113 16192269424231256049
21421861 104 17906761118907996265
22113638 7 18196360425637519319
25019877 29 17057212507603575687
3298306 158 18412550903465189677
338550 245 18335703862224635164
35225 105 18270674406450979453
474144 1 18261683553952328662
5282940 2 18334300863569676714
550186 7 16760549268156377248
57091435 65 18409729590323195763
58250162 1 18270675497435807080
6287921 2 17337039187391945323
7226269 152 17471844179678098872

> <PUBCHEM_SHAPE_MULTIPOLES>
564.01
7.26
6.06
2.05
4.2
2.13
-0.51
-3.8
0.24
-1.66
0.49
-2.15
0.78
-2.89

> <PUBCHEM_SHAPE_SELFOVERLAP>
1195.757

> <PUBCHEM_SHAPE_VOLUME>
317

> <PUBCHEM_COORDINATE_TYPE>
2
5
10

$$$$
25010600
  -OEChem-05102415123D

 56 59  0     1  0  0  0  0  0999 V2000
    0.2858   -3.3736    0.6478 S   0  0  0  0  0  0  0  0  0  0  0  0
    0.7369   -2.6812   -0.5456 O   0  0  0  0  0  0  0  0  0  0  0  0
    0.7913   -4.6982    0.9559 O   0  0  0  0  0  0  0  0  0  0  0  0
   -2.4744    2.2325   -0.0342 N   0  0  2  0  0  0  0  0  0  0  0  0
    1.0815    3.0726    0.7656 N   0  0  0  0  0  0  0  0  0  0  0  0
   -1.4403   -3.3761    0.6933 N   0  0  2  0  0  0  0  0  0  0  0  0
    4.7101   -0.7862   -0.6335 N   0  0  0  0  0  0  0  0  0  0  0  0
    4.1102   -1.4492   -1.6362 N   0  0  0  0  0  0  0  0  0  0  0  0
   -0.1860    3.1772    0.0729 C   0  0  1  0  0  0  0  0  0  0  0  0
   -1.1554    2.1130    0.6043 C   0  0  0  0  0  0  0  0  0  0  0  0
   -0.7603    4.5817    0.2622 C   0  0  0  0  0  0  0  0  0  0  0  0
   -2.1625    4.6680   -0.3303 C   0  0  0  0  0  0  0  0  0  0  0  0
   -3.0636    3.5564    0.2089 C   0  0  0  0  0  0  0  0  0  0  0  0
   -3.3708    1.1786    0.4407 C   0  0  0  0  0  0  0  0  0  0  0  0
   -3.0650   -0.1472   -0.1940 C   0  0  0  0  0  0  0  0  0  0  0  0
    2.0414    2.1232    0.4645 C   0  0  0  0  0  0  0  0  0  0  0  0
   -2.4029   -1.1339    0.5365 C   0  0  0  0  0  0  0  0  0  0  0  0
   -3.4430   -0.3923   -1.5141 C   0  0  0  0  0  0  0  0  0  0  0  0
    1.7990    1.2008   -0.5612 C   0  0  0  0  0  0  0  0  0  0  0  0
    3.2370    2.0984    1.1850 C   0  0  0  0  0  0  0  0  0  0  0  0
   -2.1187   -2.3656   -0.0530 C   0  0  0  0  0  0  0  0  0  0  0  0
    2.7874    0.2456   -0.8520 C   0  0  0  0  0  0  0  0  0  0  0  0
   -3.1587   -1.6240   -2.1037 C   0  0  0  0  0  0  0  0  0  0  0  0
    3.9689    0.2431   -0.1189 C   0  0  0  0  0  0  0  0  0  0  0  0
    4.2304    1.1536    0.9073 C   0  0  0  0  0  0  0  0  0  0  0  0
   -2.4967   -2.6107   -1.3732 C   0  0  0  0  0  0  0  0  0  0  0  0
    2.9408   -0.8188   -1.7661 C   0  0  0  0  0  0  0  0  0  0  0  0
   -2.0947   -3.8666    1.9402 C   0  0  0  0  0  0  0  0  0  0  0  0
    0.6723   -2.3210    2.0311 C   0  0  0  0  0  0  0  0  0  0  0  0
   -0.0485    3.0554   -1.0097 H   0  0  0  0  0  0  0  0  0  0  0  0
   -0.7381    1.1193    0.4205 H   0  0  0  0  0  0  0  0  0  0  0  0
   -1.2468    2.2091    1.6960 H   0  0  0  0  0  0  0  0  0  0  0  0
   -0.1083    5.3279   -0.2076 H   0  0  0  0  0  0  0  0  0  0  0  0
   -0.8037    4.8333    1.3302 H   0  0  0  0  0  0  0  0  0  0  0  0
   -2.6016    5.6450   -0.0985 H   0  0  0  0  0  0  0  0  0  0  0  0
   -2.1030    4.5958   -1.4237 H   0  0  0  0  0  0  0  0  0  0  0  0
   -3.2430    3.7128    1.2809 H   0  0  0  0  0  0  0  0  0  0  0  0
   -4.0328    3.6332   -0.2989 H   0  0  0  0  0  0  0  0  0  0  0  0
   -3.3643    1.1041    1.5369 H   0  0  0  0  0  0  0  0  0  0  0  0
   -4.4113    1.4165    0.1776 H   0  0  0  0  0  0  0  0  0  0  0  0
    1.2489    3.6772    1.5626 H   0  0  0  0  0  0  0  0  0  0  0  0
   -2.1128   -0.9371    1.5655 H   0  0  0  0  0  0  0  0  0  0  0  0
   -3.9594    0.3682   -2.0939 H   0  0  0  0  0  0  0  0  0  0  0  0
    0.8942    1.1799   -1.1556 H   0  0  0  0  0  0  0  0  0  0  0  0
    3.4142    2.8205    1.9795 H   0  0  0  0  0  0  0  0  0  0  0  0
   -3.4526   -1.8148   -3.1317 H   0  0  0  0  0  0  0  0  0  0  0  0
   -2.2797   -3.5670   -1.8418 H   0  0  0  0  0  0  0  0  0  0  0  0
    5.1595    1.1327    1.4658 H   0  0  0  0  0  0  0  0  0  0  0  0
    2.2491   -1.1575   -2.5246 H   0  0  0  0  0  0  0  0  0  0  0  0
    5.6324   -1.0881   -0.3455 H   0  0  0  0  0  0  0  0  0  0  0  0
   -2.0943   -3.0989    2.7184 H   0  0  0  0  0  0  0  0  0  0  0  0
   -3.1293   -4.1536    1.7246 H   0  0  0  0  0  0  0  0  0  0  0  0
   -1.5818   -4.7585    2.3116 H   0  0  0  0  0  0  0  0  0  0  0  0
    0.2971   -2.7700    2.9513 H   0  0  0  0  0  0  0  0  0  0  0  0
    0.2495   -1.3296    1.8672 H   0  0  0  0  0  0  0  0  0  0  0  0
    1.7610   -2.2405    2.0880 H   0  0  0  0  0  0  0  0  0  0  0  0
  1  2  2  0  0  0  0
  1  3  2  0  0  0  0
  1  6  1  0  0  0  0
  1 29  1  0  0  0  0
  4 10  1  0  0  0  0
  4 13  1  0  0  0  0
  4 14  1  0  0  0  0
  5  9  1  0  0  0  0
  5 16  1  0  0  0  0
  5 41  1  0  0  0  0
  6 21  1  0  0  0  0
  6 28  1  0  0  0  0
  7  8  1  0  0  0  0
  7 24  1  0  0  0  0
  7 50  1  0  0  0  0
  8 27  2  0  0  0  0
  9 10  1  0  0  0  0
  9 11  1  0  0  0  0
  9 30  1  0  0  0  0
 10 31  1  0  0  0  0
 10 32  1  0  0  0  0
 11 12  1  0  0  0  0
 11 33  1  0  0  0  0
 11 34  1  0  0  0  0
 12 13  1  0  0  0  0
 12 35  1  0  0  0  0
 12 36  1  0  0  0  0
 13 37  1  0  0  0  0
 13 38  1  0  0  0  0
 14 15  1  0  0  0  0
 14 39  1  0  0  0  0
 14 40  1  0  0  0  0
 15 17  2  0  0  0  0
 15 18  1  0  0  0  0
 16 19  2  0  0  0  0
 16 20  1  0  0  0  0
 17 21  1  0  0  0  0
 17 42  1  0  0  0  0
 18 23  2  0  0  0  0
 18 43  1  0  0  0  0
 19 22  1  0  0  0  0
 19 44  1  0  0  0  0
 20 25  2  0  0  0  0
 20 45  1  0  0  0  0
 21 26  2  0  0  0  0
 22 24  2  0  0  0  0
 22 27  1  0  0  0  0
 23 26  1  0  0  0  0
 23 46  1  0  0  0  0
 24 25  1  0  0  0  0
 25 48  1  0  0  0  0
 26 47  1  0  0  0  0
 27 49  1  0  0  0  0
 28 51  1  0  0  0  0
 28 52  1  0  0  0  0
 28 53  1  0  0  0  0
 29 54  1  0  0  0  0
 29 55  1  0  0  0  0
 29 56  1  0  0  0  0
M  END
> <PUBCHEM_COMPOUND_CID>
25010600

> <PUBCHEM_CONFORMER_RMSD>
1.2

> <PUBCHEM_CONFORMER_DIVERSEORDER>
1
16
143
132
183
200
61
184
282
197
247
229
97
270
178
90
243
216
251
172
225
166
60
4
267
68
250
43
222
188
187
154
131
30
196
234
255
161
78
93
122
179
53
168
104
198
54
262
263
281
121
56
230
221
275
253
186
258
207
113
211
138
18
26
73
242
80
173
157
42
94
147
245
33
236
265
180
123
248
279
114
174
128
256
159
146
249
274
254
163
116
177
214
235
6
101
70
20
215
76
120
259
92
276
268
2
144
46
233
34
193
223
185
65
272
150
5
10
149
238
278
266
140
130
252
62
139
119
237
257
50
58
226
213
195
64
36
232
269
260
191
89
162
264
209
63
151
28
81
24
167
181
74
164
95
228
171
111
102
110
277
115
91
51
7
124
176
136
201
84
244
3
98
194
205
39
25
158
48
160
208
82
135
14
8
153
261
219
12
192
199
271
87
134
71
100
40
137
280
85
67
169
190
141
175
112
77
203
241
273
106
129
19
49
9
165
27
72
224
83
210
239
47
99
31
142
127
231
220
246
29
69
44
212
86
170
108
118
88
105
117
37
217
218
32
41
57
126
11
38
109
152
148
52
35
240
23
204
66
125
75
202
155
22
145
283
206
156
55
45
227
59
133
189
17
79
13
15
107
21
182
96
103

> <PUBCHEM_MMFF94_PARTIAL_CHARGES>
36
1 1.33
10 0.27
13 0.27
14 0.41
15 -0.14
16 0.1
17 -0.15
18 -0.15
19 -0.15
2 -0.65
20 -0.15
21 0.2
23 -0.15
24 -0.15
25 -0.15
26 -0.15
27 0.14
28 0.36
29 0.11
3 -0.65
4 -0.81
41 0.4
42 0.15
43 0.15
44 0.15
45 0.15
46 0.15
47 0.15
48 0.15
49 0.15
5 -0.87
50 0.27
6 -0.69
7 0.3
8 -0.71
9 0.37

> <PUBCHEM_EFFECTIVE_ROTOR_COUNT>
7.2

> <PUBCHEM_PHARMACOPHORE_FEATURES>
11
1 2 acceptor
1 3 acceptor
1 4 cation
1 5 cation
1 5 donor
1 7 donor
1 8 acceptor
5 7 8 22 24 27 rings
6 15 17 18 21 23 26 rings
6 16 19 20 22 24 25 rings
6 4 9 10 11 12 13 rings

> <PUBCHEM_HEAVY_ATOM_COUNT>
29

> <PUBCHEM_ATOM_DEF_STEREO_COUNT>
0

> <PUBCHEM_ATOM_UDEF_STEREO_COUNT>
1

> <PUBCHEM_BOND_DEF_STEREO_COUNT>
0

> <PUBCHEM_BOND_UDEF_STEREO_COUNT>
0

> <PUBCHEM_ISOTOPIC_ATOM_COUNT>
0

> <PUBCHEM_COMPONENT_COUNT>
1

> <PUBCHEM_CACTVS_TAUTO_COUNT>
2

> <PUBCHEM_CONFORMER_ID>
017DA1A800000001

> <PUBCHEM_MMFF94_ENERGY>
77.9109

> <PUBCHEM_FEATURE_SELFOVERLAP>
55.93

> <PUBCHEM_SHAPE_FINGERPRINT>
10675989 125 18120903202177646381
11513181 2 17337011712370752199
11828532 37 16959272757666642707
12202916 173 17909235286294608662
12293681 4 18265606770633604730
12553582 1 18051423064662316061
12788726 201 18410851066645903180
13122387 1 17330558639877059164
1361 2 14952647728836659634
13642711 20 17905569489063996007
140371 6 17907011025780064065
14114206 34 18408323302113906676
14251757 5 18267328489762852756
14659021 117 18339913892384552648
14725015 67 18340476854774431107
17627616 140 17903642878193227538
19930381 70 17621316170755131567
20600515 1 17898272038753443124
20764821 26 18192446374622148874
3298306 158 17977951176822944509
338550 245 17902519181857412646
3493558 16 17126534581431401595
474144 1 16892598948067325926
508706 21 18412268341639972926
5309563 4 17402898220230189267
57091435 65 17905051348055603475
9709674 26 18343300413714854716

> <PUBCHEM_SHAPE_MULTIPOLES>
564.01
7.4
7.01
1.65
4.3
4.9
-0.21
-3.43
-1.36
-2.42
1.66
-0.5
-1.48
1.82

> <PUBCHEM_SHAPE_SELFOVERLAP>
1196.276

> <PUBCHEM_SHAPE_VOLUME>
318.2

> <PUBCHEM_COORDINATE_TYPE>
2
5
10

$$$$
25008496
  -OEChem-05102415123D

 55 58  0     1  0  0  0  0  0999 V2000
    1.1897   -3.0329    2.8876 O   0  0  0  0  0  0  0  0  0  0  0  0
   -3.0651    1.2131    0.0827 N   0  0  2  0  0  0  0  0  0  0  0  0
    0.1511    3.0142    0.7168 N   0  0  0  0  0  0  0  0  0  0  0  0
    4.6301    0.3581   -0.9854 N   0  0  0  0  0  0  0  0  0  0  0  0
    4.1830   -0.4344   -1.9738 N   0  0  0  0  0  0  0  0  0  0  0  0
    0.9446   -3.1290    0.5748 N   0  0  0  0  0  0  0  0  0  0  0  0
   -1.1333    2.7650    0.0957 C   0  0  1  0  0  0  0  0  0  0  0  0
   -1.7305    1.4632    0.6465 C   0  0  0  0  0  0  0  0  0  0  0  0
   -2.0677    3.9470    0.3563 C   0  0  0  0  0  0  0  0  0  0  0  0
   -3.4700    3.6410   -0.1581 C   0  0  0  0  0  0  0  0  0  0  0  0
   -3.9879    2.3129    0.3954 C   0  0  0  0  0  0  0  0  0  0  0  0
   -3.5986   -0.0575    0.5734 C   0  0  0  0  0  0  0  0  0  0  0  0
   -2.9479   -1.2119   -0.1367 C   0  0  0  0  0  0  0  0  0  0  0  0
    1.3199    2.3791    0.3375 C   0  0  0  0  0  0  0  0  0  0  0  0
   -1.9672   -1.9649    0.5090 C   0  0  0  0  0  0  0  0  0  0  0  0
   -3.3254   -1.5302   -1.4412 C   0  0  0  0  0  0  0  0  0  0  0  0
    1.2869    1.4393   -0.7005 C   0  0  0  0  0  0  0  0  0  0  0  0
    2.5146    2.6840    0.9924 C   0  0  0  0  0  0  0  0  0  0  0  0
   -1.3638   -3.0362   -0.1499 C   0  0  0  0  0  0  0  0  0  0  0  0
    2.4852    0.8066   -1.0711 C   0  0  0  0  0  0  0  0  0  0  0  0
    3.6608    1.1288   -0.4022 C   0  0  0  0  0  0  0  0  0  0  0  0
    3.7155    2.0626    0.6349 C   0  0  0  0  0  0  0  0  0  0  0  0
   -2.7222   -2.6013   -2.1001 C   0  0  0  0  0  0  0  0  0  0  0  0
   -1.7413   -3.3543   -1.4546 C   0  0  0  0  0  0  0  0  0  0  0  0
   -0.3144   -3.8410    0.5397 C   0  0  0  0  0  0  0  0  0  0  0  0
    2.8778   -0.1589   -2.0229 C   0  0  0  0  0  0  0  0  0  0  0  0
    1.5868   -2.7873    1.7515 C   0  0  0  0  0  0  0  0  0  0  0  0
    2.8892   -2.0752    1.5022 C   0  0  0  0  0  0  0  0  0  0  0  0
   -1.0314    2.7012   -0.9957 H   0  0  0  0  0  0  0  0  0  0  0  0
   -1.0589    0.6334    0.4123 H   0  0  0  0  0  0  0  0  0  0  0  0
   -1.7809    1.5155    1.7438 H   0  0  0  0  0  0  0  0  0  0  0  0
   -2.1168    4.1621    1.4320 H   0  0  0  0  0  0  0  0  0  0  0  0
   -1.6813    4.8533   -0.1254 H   0  0  0  0  0  0  0  0  0  0  0  0
   -3.4574    3.6029   -1.2548 H   0  0  0  0  0  0  0  0  0  0  0  0
   -4.1519    4.4507    0.1252 H   0  0  0  0  0  0  0  0  0  0  0  0
   -4.9677    2.1187   -0.0578 H   0  0  0  0  0  0  0  0  0  0  0  0
   -4.1402    2.3981    1.4795 H   0  0  0  0  0  0  0  0  0  0  0  0
   -3.5001   -0.1511    1.6634 H   0  0  0  0  0  0  0  0  0  0  0  0
   -4.6766   -0.1280    0.3712 H   0  0  0  0  0  0  0  0  0  0  0  0
    0.1882    3.6311    1.5211 H   0  0  0  0  0  0  0  0  0  0  0  0
   -1.6723   -1.7191    1.5266 H   0  0  0  0  0  0  0  0  0  0  0  0
   -4.0882   -0.9513   -1.9551 H   0  0  0  0  0  0  0  0  0  0  0  0
    0.3911    1.1715   -1.2466 H   0  0  0  0  0  0  0  0  0  0  0  0
    2.5278    3.4162    1.7974 H   0  0  0  0  0  0  0  0  0  0  0  0
    4.6442    2.2977    1.1426 H   0  0  0  0  0  0  0  0  0  0  0  0
   -3.0156   -2.8487   -3.1162 H   0  0  0  0  0  0  0  0  0  0  0  0
   -1.2786   -4.1846   -1.9814 H   0  0  0  0  0  0  0  0  0  0  0  0
   -0.1308   -4.7847    0.0140 H   0  0  0  0  0  0  0  0  0  0  0  0
   -0.6406   -4.1007    1.5532 H   0  0  0  0  0  0  0  0  0  0  0  0
    2.2646   -0.6735   -2.7491 H   0  0  0  0  0  0  0  0  0  0  0  0
    5.6154    0.3251   -0.7552 H   0  0  0  0  0  0  0  0  0  0  0  0
    1.3709   -2.8874   -0.3152 H   0  0  0  0  0  0  0  0  0  0  0  0
    3.2659   -2.2502    0.4915 H   0  0  0  0  0  0  0  0  0  0  0  0
    3.6371   -2.4402    2.2120 H   0  0  0  0  0  0  0  0  0  0  0  0
    2.7394   -1.0040    1.6558 H   0  0  0  0  0  0  0  0  0  0  0  0
  1 27  2  0  0  0  0
  2  8  1  0  0  0  0
  2 11  1  0  0  0  0
  2 12  1  0  0  0  0
  3  7  1  0  0  0  0
  3 14  1  0  0  0  0
  3 40  1  0  0  0  0
  4  5  1  0  0  0  0
  4 21  1  0  0  0  0
  4 51  1  0  0  0  0
  5 26  2  0  0  0  0
  6 25  1  0  0  0  0
  6 27  1  0  0  0  0
  6 52  1  0  0  0  0
  7  8  1  0  0  0  0
  7  9  1  0  0  0  0
  7 29  1  0  0  0  0
  8 30  1  0  0  0  0
  8 31  1  0  0  0  0
  9 10  1  0  0  0  0
  9 32  1  0  0  0  0
  9 33  1  0  0  0  0
 10 11  1  0  0  0  0
 10 34  1  0  0  0  0
 10 35  1  0  0  0  0
 11 36  1  0  0  0  0
 11 37  1  0  0  0  0
 12 13  1  0  0  0  0
 12 38  1  0  0  0  0
 12 39  1  0  0  0  0
 13 15  1  0  0  0  0
 13 16  2  0  0  0  0
 14 17  2  0  0  0  0
 14 18  1  0  0  0  0
 15 19  2  0  0  0  0
 15 41  1  0  0  0  0
 16 23  1  0  0  0  0
 16 42  1  0  0  0  0
 17 20  1  0  0  0  0
 17 43  1  0  0  0  0
 18 22  2  0  0  0  0
 18 44  1  0  0  0  0
 19 24  1  0  0  0  0
 19 25  1  0  0  0  0
 20 21  2  0  0  0  0
 20 26  1  0  0  0  0
 21 22  1  0  0  0  0
 22 45  1  0  0  0  0
 23 24  2  0  0  0  0
 23 46  1  0  0  0  0
 24 47  1  0  0  0  0
 25 48  1  0  0  0  0
 25 49  1  0  0  0  0
 26 50  1  0  0  0  0
 27 28  1  0  0  0  0
 28 53  1  0  0  0  0
 28 54  1  0  0  0  0
 28 55  1  0  0  0  0
M  END
> <PUBCHEM_COMPOUND_CID>
25008496

> <PUBCHEM_CONFORMER_RMSD>
1.2

> <PUBCHEM_CONFORMER_DIVERSEORDER>
1
15
188
145
257
139
189
153
96
165
227
220
218
135
3
82
128
161
30
29
116
244
68
190
43
159
226
77
156
37
217
146
239
34
74
54
213
58
182
201
137
240
198
170
47
242
9
160
199
102
78
136
92
147
126
98
7
173
247
17
112
167
148
83
254
61
185
93
184
2
51
64
222
60
134
235
108
62
204
36
248
191
157
79
91
80
195
140
192
171
193
219
228
225
59
20
166
103
133
163
69
65
123
67
194
168
115
162
105
48
144
53
158
237
208
57
33
252
76
150
138
27
73
10
151
113
22
233
88
117
109
143
107
179
63
130
55
174
75
56
106
245
40
100
196
253
52
203
255
236
224
197
118
41
216
177
180
206
209
35
243
120
141
12
4
250
249
232
175
238
44
202
149
142
81
181
187
23
251
95
229
71
125
210
121
6
155
246
110
45
212
50
131
32
223
241
49
176
211
85
84
70
231
31
122
214
132
205
124
13
5
114
234
178
127
101
200
28
24
42
230
215
221
256
104
11
97
8
46
38
172
90
119
86
152
25
72
87
39
164
99
207
18
16
183
186
21
19
129
66
14
154
111
169
26
94
89

> <PUBCHEM_MMFF94_PARTIAL_CHARGES>
36
1 -0.57
11 0.27
12 0.41
13 -0.14
14 0.1
15 -0.15
16 -0.15
17 -0.15
18 -0.15
19 -0.14
2 -0.81
21 -0.15
22 -0.15
23 -0.15
24 -0.15
25 0.44
26 0.14
27 0.57
28 0.06
3 -0.87
4 0.3
40 0.4
41 0.15
42 0.15
43 0.15
44 0.15
45 0.15
46 0.15
47 0.15
5 -0.71
50 0.15
51 0.27
52 0.37
6 -0.73
7 0.37
8 0.27

> <PUBCHEM_EFFECTIVE_ROTOR_COUNT>
8.2

> <PUBCHEM_PHARMACOPHORE_FEATURES>
11
1 1 acceptor
1 2 cation
1 3 cation
1 3 donor
1 4 donor
1 5 acceptor
1 6 donor
5 4 5 20 21 26 rings
6 13 15 16 19 23 24 rings
6 14 17 18 20 21 22 rings
6 2 7 8 9 10 11 rings

> <PUBCHEM_HEAVY_ATOM_COUNT>
28

> <PUBCHEM_ATOM_DEF_STEREO_COUNT>
0

> <PUBCHEM_ATOM_UDEF_STEREO_COUNT>
1

> <PUBCHEM_BOND_DEF_STEREO_COUNT>
0

> <PUBCHEM_BOND_UDEF_STEREO_COUNT>
0

> <PUBCHEM_ISOTOPIC_ATOM_COUNT>
0

> <PUBCHEM_COMPONENT_COUNT>
1

> <PUBCHEM_CACTVS_TAUTO_COUNT>
4

> <PUBCHEM_CONFORMER_ID>
017D997000000001

> <PUBCHEM_MMFF94_ENERGY>
61.453

> <PUBCHEM_FEATURE_SELFOVERLAP>
55.913

> <PUBCHEM_SHAPE_FINGERPRINT>
1100329 8 18122063096460070286
11513181 2 17338135426197237359
11828532 37 16312158556346082034
12156800 1 16483267498202084413
12202916 173 17405681049863830866
12553582 1 17691418824570838157
12788726 201 18339361984338219268
13122387 1 17689715264125520186
140371 6 17474668829054678905
14114206 34 18264210390286172252
14117953 113 17040345818506397150
14251757 5 18124063288478477580
14659021 117 18268424827383494144
15297060 5 17554603994271573914
15403338 16 16378040726504075579
21315764 21 17388221646938875887
22113638 7 17834096555616669963
3298306 158 18122913023407020885
338550 245 18189621553541738008
474144 1 17827365380007649370
5309563 4 16828407848630230351
57091435 65 18192440662199841123
58250162 1 18340481171480281746
6287921 2 16687102398141827033
7226269 152 18118397587186866248
9709674 26 18128540555376694396

> <PUBCHEM_SHAPE_MULTIPOLES>
545.45
7.62
6.22
1.85
3.25
0.05
-0.01
2.22
-2.29
-3.76
1.8
1.13
-1.96
-1.62

> <PUBCHEM_SHAPE_SELFOVERLAP>
1172.028

> <PUBCHEM_SHAPE_VOLUME>
301.8

> <PUBCHEM_COORDINATE_TYPE>
2
5
10

$$$$
44594372
  -OEChem-05102415123D

 56 59  0     1  0  0  0  0  0999 V2000
    2.3767   -2.6168    1.0308 S   0  0  0  0  0  0  0  0  0  0  0  0
    3.3323   -3.3439    1.8454 O   0  0  0  0  0  0  0  0  0  0  0  0
    2.7449   -2.1386   -0.2871 O   0  0  0  0  0  0  0  0  0  0  0  0
   -3.5305   -0.0632   -0.1486 N   0  0  2  0  0  0  0  0  0  0  0  0
   -1.2091    2.6565    0.9490 N   0  0  0  0  0  0  0  0  0  0  0  0
    0.9128   -3.5224    0.9702 N   0  0  0  0  0  0  0  0  0  0  0  0
    3.8703    2.2711   -1.0673 N   0  0  0  0  0  0  0  0  0  0  0  0
    3.7159    1.5794   -2.2086 N   0  0  0  0  0  0  0  0  0  0  0  0
   -2.3279    2.0679    0.2424 C   0  0  1  0  0  0  0  0  0  0  0  0
   -2.3678    0.5564    0.5040 C   0  0  0  0  0  0  0  0  0  0  0  0
   -3.6282    2.7342    0.6935 C   0  0  0  0  0  0  0  0  0  0  0  0
   -4.8304    2.0288    0.0757 C   0  0  0  0  0  0  0  0  0  0  0  0
   -4.7869    0.5229    0.3379 C   0  0  0  0  0  0  0  0  0  0  0  0
   -3.5256   -1.5106    0.0629 C   0  0  0  0  0  0  0  0  0  0  0  0
   -2.2501   -2.1442   -0.4253 C   0  0  0  0  0  0  0  0  0  0  0  0
    0.0971    2.5967    0.4978 C   0  0  0  0  0  0  0  0  0  0  0  0
   -1.2717   -2.5364    0.4882 C   0  0  0  0  0  0  0  0  0  0  0  0
   -2.0465   -2.3380   -1.7917 C   0  0  0  0  0  0  0  0  0  0  0  0
    0.3797    1.9370   -0.7049 C   0  0  0  0  0  0  0  0  0  0  0  0
    1.1139    3.1934    1.2455 C   0  0  0  0  0  0  0  0  0  0  0  0
   -0.0895   -3.1225    0.0355 C   0  0  0  0  0  0  0  0  0  0  0  0
    1.7125    1.8876   -1.1461 C   0  0  0  0  0  0  0  0  0  0  0  0
    2.7057    2.4901   -0.3820 C   0  0  0  0  0  0  0  0  0  0  0  0
    2.4455    3.1526    0.8195 C   0  0  0  0  0  0  0  0  0  0  0  0
   -0.8643   -2.9238   -2.2443 C   0  0  0  0  0  0  0  0  0  0  0  0
    0.1141   -3.3163   -1.3309 C   0  0  0  0  0  0  0  0  0  0  0  0
    2.4020    1.3477   -2.2531 C   0  0  0  0  0  0  0  0  0  0  0  0
    1.8407   -1.2175    1.9893 C   0  0  0  0  0  0  0  0  0  0  0  0
    2.9645   -0.2282    2.2024 C   0  0  0  0  0  0  0  0  0  0  0  0
   -2.2526    2.2627   -0.8357 H   0  0  0  0  0  0  0  0  0  0  0  0
   -1.4345    0.1308    0.1310 H   0  0  0  0  0  0  0  0  0  0  0  0
   -2.3873    0.3668    1.5872 H   0  0  0  0  0  0  0  0  0  0  0  0
   -3.7125    2.6998    1.7878 H   0  0  0  0  0  0  0  0  0  0  0  0
   -3.6314    3.7947    0.4139 H   0  0  0  0  0  0  0  0  0  0  0  0
   -4.8474    2.2138   -1.0059 H   0  0  0  0  0  0  0  0  0  0  0  0
   -5.7558    2.4490    0.4857 H   0  0  0  0  0  0  0  0  0  0  0  0
   -4.9178    0.3335    1.4116 H   0  0  0  0  0  0  0  0  0  0  0  0
   -5.6367    0.0619   -0.1801 H   0  0  0  0  0  0  0  0  0  0  0  0
   -3.6807   -1.7561    1.1226 H   0  0  0  0  0  0  0  0  0  0  0  0
   -4.3627   -1.9717   -0.4782 H   0  0  0  0  0  0  0  0  0  0  0  0
   -1.3759    3.0714    1.8594 H   0  0  0  0  0  0  0  0  0  0  0  0
   -1.4265   -2.3845    1.5540 H   0  0  0  0  0  0  0  0  0  0  0  0
   -2.8015   -2.0367   -2.5131 H   0  0  0  0  0  0  0  0  0  0  0  0
   -0.3697    1.4660   -1.3285 H   0  0  0  0  0  0  0  0  0  0  0  0
    0.8823    3.7026    2.1790 H   0  0  0  0  0  0  0  0  0  0  0  0
    3.2368    3.6143    1.3994 H   0  0  0  0  0  0  0  0  0  0  0  0
   -0.7067   -3.0767   -3.3080 H   0  0  0  0  0  0  0  0  0  0  0  0
    1.0244   -3.7825   -1.6987 H   0  0  0  0  0  0  0  0  0  0  0  0
    0.5392   -3.8091    1.8850 H   0  0  0  0  0  0  0  0  0  0  0  0
    1.9995    0.7940   -3.0896 H   0  0  0  0  0  0  0  0  0  0  0  0
    4.8037    2.5668   -0.8103 H   0  0  0  0  0  0  0  0  0  0  0  0
    1.4695   -1.5884    2.9491 H   0  0  0  0  0  0  0  0  0  0  0  0
    1.0244   -0.7322    1.4471 H   0  0  0  0  0  0  0  0  0  0  0  0
    2.6057    0.6442    2.7560 H   0  0  0  0  0  0  0  0  0  0  0  0
    3.3850    0.1086    1.2514 H   0  0  0  0  0  0  0  0  0  0  0  0
    3.7789   -0.6807    2.7777 H   0  0  0  0  0  0  0  0  0  0  0  0
  1  2  2  0  0  0  0
  1  3  2  0  0  0  0
  1  6  1  0  0  0  0
  1 28  1  0  0  0  0
  4 10  1  0  0  0  0
  4 13  1  0  0  0  0
  4 14  1  0  0  0  0
  5  9  1  0  0  0  0
  5 16  1  0  0  0  0
  5 41  1  0  0  0  0
  6 21  1  0  0  0  0
  6 49  1  0  0  0  0
  7  8  1  0  0  0  0
  7 23  1  0  0  0  0
  7 51  1  0  0  0  0
  8 27  2  0  0  0  0
  9 10  1  0  0  0  0
  9 11  1  0  0  0  0
  9 30  1  0  0  0  0
 10 31  1  0  0  0  0
 10 32  1  0  0  0  0
 11 12  1  0  0  0  0
 11 33  1  0  0  0  0
 11 34  1  0  0  0  0
 12 13  1  0  0  0  0
 12 35  1  0  0  0  0
 12 36  1  0  0  0  0
 13 37  1  0  0  0  0
 13 38  1  0  0  0  0
 14 15  1  0  0  0  0
 14 39  1  0  0  0  0
 14 40  1  0  0  0  0
 15 17  2  0  0  0  0
 15 18  1  0  0  0  0
 16 19  2  0  0  0  0
 16 20  1  0  0  0  0
 17 21  1  0  0  0  0
 17 42  1  0  0  0  0
 18 25  2  0  0  0  0
 18 43  1  0  0  0  0
 19 22  1  0  0  0  0
 19 44  1  0  0  0  0
 20 24  2  0  0  0  0
 20 45  1  0  0  0  0
 21 26  2  0  0  0  0
 22 23  2  0  0  0  0
 22 27  1  0  0  0  0
 23 24  1  0  0  0  0
 24 46  1  0  0  0  0
 25 26  1  0  0  0  0
 25 47  1  0  0  0  0
 26 48  1  0  0  0  0
 27 50  1  0  0  0  0
 28 29  1  0  0  0  0
 28 52  1  0  0  0  0
 28 53  1  0  0  0  0
 29 54  1  0  0  0  0
 29 55  1  0  0  0  0
 29 56  1  0  0  0  0
M  END
> <PUBCHEM_COMPOUND_CID>
44594372

> <PUBCHEM_CONFORMER_RMSD>
1.4

> <PUBCHEM_CONFORMER_DIVERSEORDER>
1
37
59
62
55
52
5
57
69
74
24
36
41
86
84
88
71
51
28
20
75
64
80
67
78
85
49
70
26
38
54
92
46
68
18
56
2
91
77
81
17
6
72
50
73
31
40
60
53
30
82
89
87
47
83
7
61
66
33
27
39
9
44
79
19
63
42
45
12
93
32
10
13
29
48
23
11
3
43
90
65
58
34
76
4
8
15
25
14
16
22
35
21

> <PUBCHEM_MMFF94_PARTIAL_CHARGES>
36
1 1.33
10 0.27
13 0.27
14 0.41
15 -0.14
16 0.1
17 -0.15
18 -0.15
19 -0.15
2 -0.65
20 -0.15
21 0.2
23 -0.15
24 -0.15
25 -0.15
26 -0.15
27 0.14
28 0.11
3 -0.65
4 -0.81
41 0.4
42 0.15
43 0.15
44 0.15
45 0.15
46 0.15
47 0.15
48 0.15
49 0.42
5 -0.87
50 0.15
51 0.27
6 -0.76
7 0.3
8 -0.71
9 0.37

> <PUBCHEM_EFFECTIVE_ROTOR_COUNT>
8.2

> <PUBCHEM_PHARMACOPHORE_FEATURES>
12
1 2 acceptor
1 3 acceptor
1 4 cation
1 5 cation
1 5 donor
1 6 donor
1 7 donor
1 8 acceptor
5 7 8 22 23 27 rings
6 15 17 18 21 25 26 rings
6 16 19 20 22 23 24 rings
6 4 9 10 11 12 13 rings

> <PUBCHEM_HEAVY_ATOM_COUNT>
29

> <PUBCHEM_ATOM_DEF_STEREO_COUNT>
1

> <PUBCHEM_ATOM_UDEF_STEREO_COUNT>
0

> <PUBCHEM_BOND_DEF_STEREO_COUNT>
0

> <PUBCHEM_BOND_UDEF_STEREO_COUNT>
0

> <PUBCHEM_ISOTOPIC_ATOM_COUNT>
0

> <PUBCHEM_COMPONENT_COUNT>
1

> <PUBCHEM_CACTVS_TAUTO_COUNT>
2

> <PUBCHEM_CONFORMER_ID>
02A874C400000001

> <PUBCHEM_MMFF94_ENERGY>
66.0187

> <PUBCHEM_FEATURE_SELFOVERLAP>
61.005

> <PUBCHEM_SHAPE_FINGERPRINT>
1100329 8 18338241461804401166
11513181 2 17988628693164604246
11828532 37 15305597516037436754
12156800 1 16270205324376827191
12202916 173 16472030837021180414
12293681 4 17041755964150687056
12788726 201 17762623193005814445
13122387 1 18267012865057812650
133893 2 17459724064834696322
13402501 40 17479160969498041091
14114206 34 17688587581923412005
14117953 113 17327456921938675157
14251757 17 17772214112971011820
144659 178 17476640875746726265
14659021 117 17550099707512693372
14725015 67 17547847920262072515
14932701 244 15517906532174699780
15297060 5 17916311528577873850
15840311 113 16119929251394217609
21421861 104 17834703520569832769
22113638 7 18196077851138624871
25019877 29 17057211408081398399
3298306 158 18412549795374196301
338550 245 18335422382947669452
35225 105 18270674402150750389
474144 1 18189344480642735766
550186 7 16760829639289550120
57091435 65 18409729590317927507
58250162 1 18270394022453821680
6287921 2 17337039187449993547
7226269 152 17471844179678098864

> <PUBCHEM_SHAPE_MULTIPOLES>
564.01
7.28
6.01
2.03
4.1
2.15
-0.51
-3.86
0.15
-1.39
0.5
-2.14
0.79
-2.81

> <PUBCHEM_SHAPE_SELFOVERLAP>
1195.758

> <PUBCHEM_SHAPE_VOLUME>
317.1

> <PUBCHEM_COORDINATE_TYPE>
2
5
10

$$$$
25010601
  -OEChem-05102415123D

 56 59  0     1  0  0  0  0  0999 V2000
   -3.1883    1.7131   -1.3286 S   0  0  0  0  0  0  0  0  0  0  0  0
   -4.2695    2.0595   -2.2322 O   0  0  0  0  0  0  0  0  0  0  0  0
   -2.0654    0.9222   -1.7920 O   0  0  0  0  0  0  0  0  0  0  0  0
    3.0022    1.5615   -0.0038 N   0  0  1  0  0  0  0  0  0  0  0  0
    2.5571   -2.0457   -0.8679 N   0  0  0  0  0  0  0  0  0  0  0  0
   -2.6487    3.1508   -0.5490 N   0  0  0  0  0  0  0  0  0  0  0  0
   -2.2310   -4.1836    0.7190 N   0  0  0  0  0  0  0  0  0  0  0  0
   -2.5995   -3.4197    1.7609 N   0  0  0  0  0  0  0  0  0  0  0  0
    3.1193   -0.9058   -0.1758 C   0  0  2  0  0  0  0  0  0  0  0  0
    2.4150    0.3741   -0.6421 C   0  0  0  0  0  0  0  0  0  0  0  0
    4.6232   -0.8329   -0.4393 C   0  0  0  0  0  0  0  0  0  0  0  0
    5.2043    0.4449    0.1564 C   0  0  0  0  0  0  0  0  0  0  0  0
    4.4335    1.6787   -0.3154 C   0  0  0  0  0  0  0  0  0  0  0  0
    2.2883    2.7699   -0.4156 C   0  0  0  0  0  0  0  0  0  0  0  0
    0.9698    2.9111    0.2886 C   0  0  0  0  0  0  0  0  0  0  0  0
    1.3549   -2.6348   -0.5198 C   0  0  0  0  0  0  0  0  0  0  0  0
   -0.2127    2.9642   -0.4492 C   0  0  0  0  0  0  0  0  0  0  0  0
    0.9274    2.9893    1.6807 C   0  0  0  0  0  0  0  0  0  0  0  0
    0.6225   -2.1199    0.5572 C   0  0  0  0  0  0  0  0  0  0  0  0
    0.8883   -3.7317   -1.2465 C   0  0  0  0  0  0  0  0  0  0  0  0
   -1.4375    3.0955    0.2050 C   0  0  0  0  0  0  0  0  0  0  0  0
   -0.5966   -2.7320    0.8934 C   0  0  0  0  0  0  0  0  0  0  0  0
   -1.0378   -3.8230    0.1531 C   0  0  0  0  0  0  0  0  0  0  0  0
   -0.3233   -4.3518   -0.9240 C   0  0  0  0  0  0  0  0  0  0  0  0
   -0.2975    3.1207    2.3349 C   0  0  0  0  0  0  0  0  0  0  0  0
   -1.4800    3.1737    1.5971 C   0  0  0  0  0  0  0  0  0  0  0  0
   -1.6027   -2.5379    1.8642 C   0  0  0  0  0  0  0  0  0  0  0  0
   -3.9216    0.8635    0.0516 C   0  0  0  0  0  0  0  0  0  0  0  0
   -4.4939   -0.4741   -0.3611 C   0  0  0  0  0  0  0  0  0  0  0  0
    3.0133   -1.0202    0.9111 H   0  0  0  0  0  0  0  0  0  0  0  0
    2.4835    0.4543   -1.7368 H   0  0  0  0  0  0  0  0  0  0  0  0
    1.3472    0.3170   -0.4094 H   0  0  0  0  0  0  0  0  0  0  0  0
    5.1293   -1.7084   -0.0151 H   0  0  0  0  0  0  0  0  0  0  0  0
    4.8211   -0.8505   -1.5193 H   0  0  0  0  0  0  0  0  0  0  0  0
    6.2591    0.5374   -0.1261 H   0  0  0  0  0  0  0  0  0  0  0  0
    5.1707    0.3865    1.2518 H   0  0  0  0  0  0  0  0  0  0  0  0
    4.5877    1.8211   -1.3932 H   0  0  0  0  0  0  0  0  0  0  0  0
    4.8560    2.5539    0.1932 H   0  0  0  0  0  0  0  0  0  0  0  0
    2.8690    3.6646   -0.1501 H   0  0  0  0  0  0  0  0  0  0  0  0
    2.1688    2.8107   -1.5067 H   0  0  0  0  0  0  0  0  0  0  0  0
    3.0293   -2.3900   -1.6969 H   0  0  0  0  0  0  0  0  0  0  0  0
   -0.1777    2.9150   -1.5349 H   0  0  0  0  0  0  0  0  0  0  0  0
    1.8407    2.9543    2.2688 H   0  0  0  0  0  0  0  0  0  0  0  0
    0.9410   -1.2776    1.1586 H   0  0  0  0  0  0  0  0  0  0  0  0
    1.4660   -4.1230   -2.0815 H   0  0  0  0  0  0  0  0  0  0  0  0
   -0.6873   -5.2038   -1.4872 H   0  0  0  0  0  0  0  0  0  0  0  0
   -0.3304    3.1823    3.4187 H   0  0  0  0  0  0  0  0  0  0  0  0
   -2.4287    3.2751    2.1177 H   0  0  0  0  0  0  0  0  0  0  0  0
   -3.3895    3.7120   -0.1074 H   0  0  0  0  0  0  0  0  0  0  0  0
   -1.6499   -1.7883    2.6414 H   0  0  0  0  0  0  0  0  0  0  0  0
   -2.8431   -4.9406    0.4415 H   0  0  0  0  0  0  0  0  0  0  0  0
   -4.7073    1.5054    0.4607 H   0  0  0  0  0  0  0  0  0  0  0  0
   -3.1452    0.7126    0.8067 H   0  0  0  0  0  0  0  0  0  0  0  0
   -4.9379   -0.9806    0.5014 H   0  0  0  0  0  0  0  0  0  0  0  0
   -3.7180   -1.1264   -0.7751 H   0  0  0  0  0  0  0  0  0  0  0  0
   -5.2707   -0.3548   -1.1231 H   0  0  0  0  0  0  0  0  0  0  0  0
  1  2  2  0  0  0  0
  1  3  2  0  0  0  0
  1  6  1  0  0  0  0
  1 28  1  0  0  0  0
  4 10  1  0  0  0  0
  4 13  1  0  0  0  0
  4 14  1  0  0  0  0
  5  9  1  0  0  0  0
  5 16  1  0  0  0  0
  5 41  1  0  0  0  0
  6 21  1  0  0  0  0
  6 49  1  0  0  0  0
  7  8  1  0  0  0  0
  7 23  1  0  0  0  0
  7 51  1  0  0  0  0
  8 27  2  0  0  0  0
  9 10  1  0  0  0  0
  9 11  1  0  0  0  0
  9 30  1  0  0  0  0
 10 31  1  0  0  0  0
 10 32  1  0  0  0  0
 11 12  1  0  0  0  0
 11 33  1  0  0  0  0
 11 34  1  0  0  0  0
 12 13  1  0  0  0  0
 12 35  1  0  0  0  0
 12 36  1  0  0  0  0
 13 37  1  0  0  0  0
 13 38  1  0  0  0  0
 14 15  1  0  0  0  0
 14 39  1  0  0  0  0
 14 40  1  0  0  0  0
 15 17  2  0  0  0  0
 15 18  1  0  0  0  0
 16 19  2  0  0  0  0
 16 20  1  0  0  0  0
 17 21  1  0  0  0  0
 17 42  1  0  0  0  0
 18 25  2  0  0  0  0
 18 43  1  0  0  0  0
 19 22  1  0  0  0  0
 19 44  1  0  0  0  0
 20 24  2  0  0  0  0
 20 45  1  0  0  0  0
 21 26  2  0  0  0  0
 22 23  2  0  0  0  0
 22 27  1  0  0  0  0
 23 24  1  0  0  0  0
 24 46  1  0  0  0  0
 25 26  1  0  0  0  0
 25 47  1  0  0  0  0
 26 48  1  0  0  0  0
 27 50  1  0  0  0  0
 28 29  1  0  0  0  0
 28 52  1  0  0  0  0
 28 53  1  0  0  0  0
 29 54  1  0  0  0  0
 29 55  1  0  0  0  0
 29 56  1  0  0  0  0
M  END
> <PUBCHEM_COMPOUND_CID>
25010601

> <PUBCHEM_CONFORMER_RMSD>
1.4

> <PUBCHEM_CONFORMER_DIVERSEORDER>
1
69
49
47
57
11
97
16
65
31
93
92
59
68
34
85
62
72
30
96
55
36
79
58
45
18
51
43
2
44
75
60
77
37
61
52
89
86
99
20
5
74
35
26
91
63
38
67
21
98
33
40
46
84
32
54
29
10
27
48
76
90
39
80
83
53
6
9
4
12
15
78
71
23
7
82
73
94
13
17
64
28
22
70
42
95
81
66
88
25
41
19
3
24
87
50
8
14
56

> <PUBCHEM_MMFF94_PARTIAL_CHARGES>
36
1 1.33
10 0.27
13 0.27
14 0.41
15 -0.14
16 0.1
17 -0.15
18 -0.15
19 -0.15
2 -0.65
20 -0.15
21 0.2
23 -0.15
24 -0.15
25 -0.15
26 -0.15
27 0.14
28 0.11
3 -0.65
4 -0.81
41 0.4
42 0.15
43 0.15
44 0.15
45 0.15
46 0.15
47 0.15
48 0.15
49 0.42
5 -0.87
50 0.15
51 0.27
6 -0.76
7 0.3
8 -0.71
9 0.37

> <PUBCHEM_EFFECTIVE_ROTOR_COUNT>
8.2

> <PUBCHEM_PHARMACOPHORE_FEATURES>
12
1 2 acceptor
1 3 acceptor
1 4 cation
1 5 cation
1 5 donor
1 6 donor
1 7 donor
1 8 acceptor
5 7 8 22 23 27 rings
6 15 17 18 21 25 26 rings
6 16 19 20 22 23 24 rings
6 4 9 10 11 12 13 rings

> <PUBCHEM_HEAVY_ATOM_COUNT>
29

> <PUBCHEM_ATOM_DEF_STEREO_COUNT>
1

> <PUBCHEM_ATOM_UDEF_STEREO_COUNT>
0

> <PUBCHEM_BOND_DEF_STEREO_COUNT>
0

> <PUBCHEM_BOND_UDEF_STEREO_COUNT>
0

> <PUBCHEM_ISOTOPIC_ATOM_COUNT>
0

> <PUBCHEM_COMPONENT_COUNT>
1

> <PUBCHEM_CACTVS_TAUTO_COUNT>
2

> <PUBCHEM_CONFORMER_ID>
017DA1A900000001

> <PUBCHEM_MMFF94_ENERGY>
65.2019

> <PUBCHEM_FEATURE_SELFOVERLAP>
61.005

> <PUBCHEM_SHAPE_FINGERPRINT>
108634 29 18411427198149335934
12156800 1 18048562045655304520
12422481 6 17396437464985673795
12539773 59 16835423265512880489
12553582 1 15887445119064003826
13122387 1 18339361842820485319
13402501 40 18336830896102849851
13965767 371 16469791157431560600
150020 26 17327200130413613779
16993438 75 18336542832398348306
17138139 8 18057016104335185620
19026451 147 17760622799688233279
20028762 73 17911222937541521022
20764821 26 17978507860212768157
20775438 99 17121658478942289495
21133410 38 17914353290253513889
21133410 90 17272861058977708683
35225 105 17250848857500873637
4409770 3 18411421756494128946
4742675 86 18200044944688956403
50150288 127 16771004103064351065
513202 73 17041439257663425544
6376802 137 17703218517456975120
66674814 147 18263918852612828844

> <PUBCHEM_SHAPE_MULTIPOLES>
564.01
7.6
7.3
1.73
3.03
4.81
-0.39
-2.7
2.57
-2.86
-1.56
-1.58
-0.48
1.87

> <PUBCHEM_SHAPE_SELFOVERLAP>
1194.735

> <PUBCHEM_SHAPE_VOLUME>
317.1

> <PUBCHEM_COORDINATE_TYPE>
2
5
10

$$$$
25010602
  -OEChem-05102415123D

 52 55  0     1  0  0  0  0  0999 V2000
    0.7886   -3.6595    0.4219 O   0  0  0  0  0  0  0  0  0  0  0  0
    3.3621   -2.1163    2.3882 O   0  0  0  0  0  0  0  0  0  0  0  0
    3.4894   -3.7203    0.7761 O   0  0  0  0  0  0  0  0  0  0  0  0
   -3.3241    0.2654    0.1157 N   0  0  2  0  0  0  0  0  0  0  0  0
   -0.8891    3.0144    0.8256 N   0  0  0  0  0  0  0  0  0  0  0  0
    4.2059    2.0680   -0.9520 N   0  0  0  0  0  0  0  0  0  0  0  0
    4.0410    1.2064   -1.9695 N   0  0  0  0  0  0  0  0  0  0  0  0
   -2.0215    2.3721    0.1911 C   0  0  2  0  0  0  0  0  0  0  0  0
   -3.2949    3.1643    0.4898 C   0  0  0  0  0  0  0  0  0  0  0  0
   -2.1451    0.9273    0.6932 C   0  0  0  0  0  0  0  0  0  0  0  0
   -4.5185    2.4253   -0.0406 C   0  0  0  0  0  0  0  0  0  0  0  0
   -4.5586    0.9822    0.4635 C   0  0  0  0  0  0  0  0  0  0  0  0
   -3.3985   -1.1266    0.5591 C   0  0  0  0  0  0  0  0  0  0  0  0
   -2.4185   -2.0011   -0.1682 C   0  0  0  0  0  0  0  0  0  0  0  0
    0.4216    2.8198    0.4287 C   0  0  0  0  0  0  0  0  0  0  0  0
    0.6959    1.9596   -0.6420 C   0  0  0  0  0  0  0  0  0  0  0  0
    1.4511    3.4835    1.0986 C   0  0  0  0  0  0  0  0  0  0  0  0
   -1.2562   -2.4294    0.4728 C   0  0  0  0  0  0  0  0  0  0  0  0
   -2.6708   -2.3855   -1.4851 C   0  0  0  0  0  0  0  0  0  0  0  0
    2.0337    1.7768   -1.0302 C   0  0  0  0  0  0  0  0  0  0  0  0
    3.0396    2.4499   -0.3457 C   0  0  0  0  0  0  0  0  0  0  0  0
    2.7877    3.3118    0.7240 C   0  0  0  0  0  0  0  0  0  0  0  0
   -0.3461   -3.2422   -0.2029 C   0  0  0  0  0  0  0  0  0  0  0  0
   -1.7607   -3.1982   -2.1610 C   0  0  0  0  0  0  0  0  0  0  0  0
   -0.5984   -3.6266   -1.5199 C   0  0  0  0  0  0  0  0  0  0  0  0
    2.7184    1.0316   -2.0139 C   0  0  0  0  0  0  0  0  0  0  0  0
    1.3357   -2.7974    1.4188 C   0  0  0  0  0  0  0  0  0  0  0  0
    2.8302   -2.9551    1.4638 C   0  0  0  0  0  0  0  0  0  0  0  0
   -1.9131    2.3839   -0.9015 H   0  0  0  0  0  0  0  0  0  0  0  0
   -3.4043    3.3132    1.5722 H   0  0  0  0  0  0  0  0  0  0  0  0
   -3.2374    4.1637    0.0420 H   0  0  0  0  0  0  0  0  0  0  0  0
   -1.2388    0.3745    0.4319 H   0  0  0  0  0  0  0  0  0  0  0  0
   -2.2008    0.9217    1.7915 H   0  0  0  0  0  0  0  0  0  0  0  0
   -4.5029    2.4316   -1.1379 H   0  0  0  0  0  0  0  0  0  0  0  0
   -5.4294    2.9503    0.2685 H   0  0  0  0  0  0  0  0  0  0  0  0
   -5.4211    0.4880   -0.0001 H   0  0  0  0  0  0  0  0  0  0  0  0
   -4.7219    0.9740    1.5493 H   0  0  0  0  0  0  0  0  0  0  0  0
   -4.3962   -1.5392    0.3519 H   0  0  0  0  0  0  0  0  0  0  0  0
   -3.2760   -1.2125    1.6476 H   0  0  0  0  0  0  0  0  0  0  0  0
   -1.0536    3.5799    1.6513 H   0  0  0  0  0  0  0  0  0  0  0  0
   -0.0636    1.4271   -1.2007 H   0  0  0  0  0  0  0  0  0  0  0  0
    1.2256    4.1499    1.9289 H   0  0  0  0  0  0  0  0  0  0  0  0
   -1.0978   -2.1383    1.5076 H   0  0  0  0  0  0  0  0  0  0  0  0
   -3.5729   -2.0584   -1.9957 H   0  0  0  0  0  0  0  0  0  0  0  0
    3.5887    3.8263    1.2431 H   0  0  0  0  0  0  0  0  0  0  0  0
   -1.9568   -3.4972   -3.1865 H   0  0  0  0  0  0  0  0  0  0  0  0
    0.1072   -4.2590   -2.0516 H   0  0  0  0  0  0  0  0  0  0  0  0
    2.3063    0.3677   -2.7608 H   0  0  0  0  0  0  0  0  0  0  0  0
    5.1474    2.3587   -0.7198 H   0  0  0  0  0  0  0  0  0  0  0  0
    0.9234   -3.0722    2.3950 H   0  0  0  0  0  0  0  0  0  0  0  0
    1.1460   -1.7415    1.1871 H   0  0  0  0  0  0  0  0  0  0  0  0
    4.3385   -2.1978    2.4377 H   0  0  0  0  0  0  0  0  0  0  0  0
  1 23  1  0  0  0  0
  1 27  1  0  0  0  0
  2 28  1  0  0  0  0
  2 52  1  0  0  0  0
  3 28  2  0  0  0  0
  4 10  1  0  0  0  0
  4 12  1  0  0  0  0
  4 13  1  0  0  0  0
  5  8  1  0  0  0  0
  5 15  1  0  0  0  0
  5 40  1  0  0  0  0
  6  7  1  0  0  0  0
  6 21  1  0  0  0  0
  6 49  1  0  0  0  0
  7 26  2  0  0  0  0
  8  9  1  0  0  0  0
  8 10  1  0  0  0  0
  8 29  1  0  0  0  0
  9 11  1  0  0  0  0
  9 30  1  0  0  0  0
  9 31  1  0  0  0  0
 10 32  1  0  0  0  0
 10 33  1  0  0  0  0
 11 12  1  0  0  0  0
 11 34  1  0  0  0  0
 11 35  1  0  0  0  0
 12 36  1  0  0  0  0
 12 37  1  0  0  0  0
 13 14  1  0  0  0  0
 13 38  1  0  0  0  0
 13 39  1  0  0  0  0
 14 18  2  0  0  0  0
 14 19  1  0  0  0  0
 15 16  2  0  0  0  0
 15 17  1  0  0  0  0
 16 20  1  0  0  0  0
 16 41  1  0  0  0  0
 17 22  2  0  0  0  0
 17 42  1  0  0  0  0
 18 23  1  0  0  0  0
 18 43  1  0  0  0  0
 19 24  2  0  0  0  0
 19 44  1  0  0  0  0
 20 21  2  0  0  0  0
 20 26  1  0  0  0  0
 21 22  1  0  0  0  0
 22 45  1  0  0  0  0
 23 25  2  0  0  0  0
 24 25  1  0  0  0  0
 24 46  1  0  0  0  0
 25 47  1  0  0  0  0
 26 48  1  0  0  0  0
 27 28  1  0  0  0  0
 27 50  1  0  0  0  0
 27 51  1  0  0  0  0
M  END
> <PUBCHEM_COMPOUND_CID>
25010602

> <PUBCHEM_CONFORMER_RMSD>
1

> <PUBCHEM_CONFORMER_DIVERSEORDER>
1
179
78
116
199
201
133
197
245
205
134
170
109
147
189
72
121
177
50
198
85
86
257
235
55
223
204
183
88
98
181
47
226
216
150
51
103
42
106
167
239
247
125
153
145
87
246
217
212
182
20
230
76
61
219
178
19
143
160
163
107
135
94
215
231
185
128
142
176
127
208
256
137
138
253
115
21
11
158
96
25
222
139
30
255
100
102
157
118
196
171
200
168
254
2
206
57
202
191
95
84
251
92
65
228
31
45
58
14
131
119
195
214
89
243
244
249
209
23
29
70
229
39
101
234
154
218
210
111
46
152
151
108
169
77
59
148
33
184
120
149
122
180
136
248
91
81
227
68
71
188
155
83
32
104
172
73
13
220
213
40
130
60
207
190
5
174
75
123
64
54
22
164
4
144
8
146
140
236
233
252
48
112
203
74
250
15
141
37
117
114
186
3
238
53
113
90
24
221
97
225
166
159
173
93
44
232
126
242
49
67
211
6
80
240
28
187
165
38
9
7
161
27
241
34
110
16
193
224
35
82
132
156
237
69
124
192
79
17
162
63
52
129
62
56
36
43
18
66
175
12
99
26
41
10
105
194

> <PUBCHEM_MMFF94_PARTIAL_CHARGES>
36
1 -0.36
10 0.27
12 0.27
13 0.41
14 -0.14
15 0.1
16 -0.15
17 -0.15
18 -0.15
19 -0.15
2 -0.65
21 -0.15
22 -0.15
23 0.08
24 -0.15
25 -0.15
26 0.14
27 0.34
28 0.66
3 -0.57
4 -0.81
40 0.4
41 0.15
42 0.15
43 0.15
44 0.15
45 0.15
46 0.15
47 0.15
48 0.15
49 0.27
5 -0.87
52 0.5
6 0.3
7 -0.71
8 0.37

> <PUBCHEM_EFFECTIVE_ROTOR_COUNT>
8.2

> <PUBCHEM_PHARMACOPHORE_FEATURES>
13
1 1 acceptor
1 2 acceptor
1 3 acceptor
1 4 cation
1 5 cation
1 5 donor
1 6 donor
1 7 acceptor
3 2 3 28 anion
5 6 7 20 21 26 rings
6 14 18 19 23 24 25 rings
6 15 16 17 20 21 22 rings
6 4 8 9 10 11 12 rings

> <PUBCHEM_HEAVY_ATOM_COUNT>
28

> <PUBCHEM_ATOM_DEF_STEREO_COUNT>
1

> <PUBCHEM_ATOM_UDEF_STEREO_COUNT>
0

> <PUBCHEM_BOND_DEF_STEREO_COUNT>
0

> <PUBCHEM_BOND_UDEF_STEREO_COUNT>
0

> <PUBCHEM_ISOTOPIC_ATOM_COUNT>
0

> <PUBCHEM_COMPONENT_COUNT>
1

> <PUBCHEM_CACTVS_TAUTO_COUNT>
2

> <PUBCHEM_CONFORMER_ID>
017DA1AA00000001

> <PUBCHEM_MMFF94_ENERGY>
70.4635

> <PUBCHEM_FEATURE_SELFOVERLAP>
66.124

> <PUBCHEM_SHAPE_FINGERPRINT>
10006869 2 18339646741588452395
1100329 8 18337957761971295126
11513181 2 18058998489767608694
11828532 37 14943898881040472218
12156800 1 16557310883159209271
12202916 173 16759418974465490374
12553582 1 17042620180216194493
140371 6 17619071634089573521
14114206 34 17831863821041609980
14117953 113 17400076374934471629
14251757 5 17906765800295462940
14659021 117 17836643402725793480
14725015 67 17692527127743357706
15297060 5 17843124701875696746
15322534 239 18263658406212769838
15840311 113 15974405558731913025
15961568 22 17619065027971085551
17627616 140 18408320007852949194
19611394 137 18117578236181675811
22113638 7 18123457294172689971
3298306 158 18410582760392480077
474144 1 18115880585610927454
5282940 2 18333734610992263130
57091435 65 18408326587737526858
6287921 2 16974214592221445786
9709674 26 17696199479495537029

> <PUBCHEM_SHAPE_MULTIPOLES>
538.69
7.64
7.03
1.79
2.65
3.39
0.38
-3.56
1.75
-1.08
-2.39
1.2
1.65
-2.5

> <PUBCHEM_SHAPE_SELFOVERLAP>
1163.38

> <PUBCHEM_SHAPE_VOLUME>
296

> <PUBCHEM_COORDINATE_TYPE>
2
5
10

$$$$
25007984
  -OEChem-05102415123D

 53 56  0     0  0  0  0  0  0999 V2000
   -5.2774    1.8171   -0.1207 O   0  0  0  0  0  0  0  0  0  0  0  0
   -5.7689    4.5244   -0.6452 O   0  0  0  0  0  0  0  0  0  0  0  0
   -1.1686   -2.1141   -0.1482 N   0  0  0  0  0  0  0  0  0  0  0  0
    2.4136   -1.5193   -0.6092 N   0  0  0  0  0  0  0  0  0  0  0  0
    6.5545    2.0311   -0.1021 N   0  0  0  0  0  0  0  0  0  0  0  0
    6.6179    2.2714    1.2181 N   0  0  0  0  0  0  0  0  0  0  0  0
    1.6820   -1.9700    0.5592 C   0  0  0  0  0  0  0  0  0  0  0  0
    0.6693   -0.9072    0.9900 C   0  0  0  0  0  0  0  0  0  0  0  0
    0.9708   -3.2911    0.2591 C   0  0  0  0  0  0  0  0  0  0  0  0
   -0.5185   -0.8088    0.0273 C   0  0  0  0  0  0  0  0  0  0  0  0
   -0.2270   -3.1088   -0.6786 C   0  0  0  0  0  0  0  0  0  0  0  0
   -2.3328   -1.9924   -1.0257 C   0  0  0  0  0  0  0  0  0  0  0  0
    3.4671   -0.6252   -0.5531 C   0  0  0  0  0  0  0  0  0  0  0  0
   -3.5099   -1.3801   -0.3141 C   0  0  0  0  0  0  0  0  0  0  0  0
    3.8688   -0.1119    0.6864 C   0  0  0  0  0  0  0  0  0  0  0  0
    4.1152   -0.2481   -1.7307 C   0  0  0  0  0  0  0  0  0  0  0  0
   -3.8521   -0.0485   -0.5496 C   0  0  0  0  0  0  0  0  0  0  0  0
   -4.2585   -2.1448    0.5806 C   0  0  0  0  0  0  0  0  0  0  0  0
    4.9421    0.7941    0.7216 C   0  0  0  0  0  0  0  0  0  0  0  0
    5.5699    1.1527   -0.4660 C   0  0  0  0  0  0  0  0  0  0  0  0
    5.1851    0.6527   -1.7120 C   0  0  0  0  0  0  0  0  0  0  0  0
   -4.9429    0.5182    0.1094 C   0  0  0  0  0  0  0  0  0  0  0  0
   -5.3492   -1.5781    1.2398 C   0  0  0  0  0  0  0  0  0  0  0  0
   -5.6914   -0.2466    1.0042 C   0  0  0  0  0  0  0  0  0  0  0  0
    5.6353    1.5172    1.7158 C   0  0  0  0  0  0  0  0  0  0  0  0
   -4.2182    2.7097   -0.4634 C   0  0  0  0  0  0  0  0  0  0  0  0
   -4.5761    4.1062    0.0073 C   0  0  0  0  0  0  0  0  0  0  0  0
    2.3748   -2.1870    1.3808 H   0  0  0  0  0  0  0  0  0  0  0  0
    0.2900   -1.1694    1.9870 H   0  0  0  0  0  0  0  0  0  0  0  0
    1.1261    0.0835    1.0866 H   0  0  0  0  0  0  0  0  0  0  0  0
    1.6707   -4.0116   -0.1816 H   0  0  0  0  0  0  0  0  0  0  0  0
    0.6174   -3.7288    1.2023 H   0  0  0  0  0  0  0  0  0  0  0  0
   -0.1831   -0.4020   -0.9358 H   0  0  0  0  0  0  0  0  0  0  0  0
   -1.2160   -0.0825    0.4586 H   0  0  0  0  0  0  0  0  0  0  0  0
   -0.7278   -4.0808   -0.7691 H   0  0  0  0  0  0  0  0  0  0  0  0
    0.1134   -2.8296   -1.6838 H   0  0  0  0  0  0  0  0  0  0  0  0
   -2.6586   -2.9853   -1.3671 H   0  0  0  0  0  0  0  0  0  0  0  0
   -2.0939   -1.4389   -1.9442 H   0  0  0  0  0  0  0  0  0  0  0  0
    2.1094   -1.8293   -1.5253 H   0  0  0  0  0  0  0  0  0  0  0  0
    3.4009   -0.3718    1.6279 H   0  0  0  0  0  0  0  0  0  0  0  0
    3.7942   -0.6539   -2.6881 H   0  0  0  0  0  0  0  0  0  0  0  0
   -3.2686    0.5154   -1.2722 H   0  0  0  0  0  0  0  0  0  0  0  0
   -4.0018   -3.1833    0.7727 H   0  0  0  0  0  0  0  0  0  0  0  0
    5.6898    0.9468   -2.6256 H   0  0  0  0  0  0  0  0  0  0  0  0
   -5.9320   -2.1734    1.9365 H   0  0  0  0  0  0  0  0  0  0  0  0
   -6.5421    0.1897    1.5207 H   0  0  0  0  0  0  0  0  0  0  0  0
    5.4638    1.5247    2.7830 H   0  0  0  0  0  0  0  0  0  0  0  0
    7.2171    2.5017   -0.7058 H   0  0  0  0  0  0  0  0  0  0  0  0
   -4.1005    2.7029   -1.5531 H   0  0  0  0  0  0  0  0  0  0  0  0
   -3.2737    2.4288    0.0190 H   0  0  0  0  0  0  0  0  0  0  0  0
   -4.7636    4.1145    1.0856 H   0  0  0  0  0  0  0  0  0  0  0  0
   -3.7767    4.8138   -0.2312 H   0  0  0  0  0  0  0  0  0  0  0  0
   -5.9710    5.4193   -0.3229 H   0  0  0  0  0  0  0  0  0  0  0  0
  1 22  1  0  0  0  0
  1 26  1  0  0  0  0
  2 27  1  0  0  0  0
  2 53  1  0  0  0  0
  3 10  1  0  0  0  0
  3 11  1  0  0  0  0
  3 12  1  0  0  0  0
  4  7  1  0  0  0  0
  4 13  1  0  0  0  0
  4 39  1  0  0  0  0
  5  6  1  0  0  0  0
  5 20  1  0  0  0  0
  5 48  1  0  0  0  0
  6 25  2  0  0  0  0
  7  8  1  0  0  0  0
  7  9  1  0  0  0  0
  7 28  1  0  0  0  0
  8 10  1  0  0  0  0
  8 29  1  0  0  0  0
  8 30  1  0  0  0  0
  9 11  1  0  0  0  0
  9 31  1  0  0  0  0
  9 32  1  0  0  0  0
 10 33  1  0  0  0  0
 10 34  1  0  0  0  0
 11 35  1  0  0  0  0
 11 36  1  0  0  0  0
 12 14  1  0  0  0  0
 12 37  1  0  0  0  0
 12 38  1  0  0  0  0
 13 15  2  0  0  0  0
 13 16  1  0  0  0  0
 14 17  2  0  0  0  0
 14 18  1  0  0  0  0
 15 19  1  0  0  0  0
 15 40  1  0  0  0  0
 16 21  2  0  0  0  0
 16 41  1  0  0  0  0
 17 22  1  0  0  0  0
 17 42  1  0  0  0  0
 18 23  2  0  0  0  0
 18 43  1  0  0  0  0
 19 20  2  0  0  0  0
 19 25  1  0  0  0  0
 20 21  1  0  0  0  0
 21 44  1  0  0  0  0
 22 24  2  0  0  0  0
 23 24  1  0  0  0  0
 23 45  1  0  0  0  0
 24 46  1  0  0  0  0
 25 47  1  0  0  0  0
 26 27  1  0  0  0  0
 26 49  1  0  0  0  0
 26 50  1  0  0  0  0
 27 51  1  0  0  0  0
 27 52  1  0  0  0  0
M  END
> <PUBCHEM_COMPOUND_CID>
25007984

> <PUBCHEM_CONFORMER_RMSD>
1.2

> <PUBCHEM_CONFORMER_DIVERSEORDER>
1
48
53
80
78
42
87
45
82
86
57
52
88
14
18
54
67
32
64
40
17
15
91
6
41
84
62
7
35
9
12
73
36
89
55
23
31
85
10
66
22
51
34
49
21
43
29
11
92
46
16
60
26
81
68
30
56
59
5
61
58
76
63
65
25
69
33
27
83
19
8
24
3
90
37
79
47
50
72
2
4
70
74
28
71
77
13
38
44
20
75
39

> <PUBCHEM_MMFF94_PARTIAL_CHARGES>
35
1 -0.36
10 0.27
11 0.27
12 0.41
13 0.1
14 -0.14
15 -0.15
16 -0.15
17 -0.15
18 -0.15
2 -0.68
20 -0.15
21 -0.15
22 0.08
23 -0.15
24 -0.15
25 0.14
26 0.28
27 0.28
3 -0.81
39 0.4
4 -0.87
40 0.15
41 0.15
42 0.15
43 0.15
44 0.15
45 0.15
46 0.15
47 0.15
48 0.27
5 0.3
53 0.4
6 -0.71
7 0.37

> <PUBCHEM_EFFECTIVE_ROTOR_COUNT>
8.2

> <PUBCHEM_PHARMACOPHORE_FEATURES>
12
1 1 acceptor
1 2 acceptor
1 2 donor
1 3 cation
1 4 cation
1 4 donor
1 5 donor
1 6 acceptor
5 5 6 19 20 25 rings
6 13 15 16 19 20 21 rings
6 14 17 18 22 23 24 rings
6 3 7 8 9 10 11 rings

> <PUBCHEM_HEAVY_ATOM_COUNT>
27

> <PUBCHEM_ATOM_DEF_STEREO_COUNT>
0

> <PUBCHEM_ATOM_UDEF_STEREO_COUNT>
0

> <PUBCHEM_BOND_DEF_STEREO_COUNT>
0

> <PUBCHEM_BOND_UDEF_STEREO_COUNT>
0

> <PUBCHEM_ISOTOPIC_ATOM_COUNT>
0

> <PUBCHEM_COMPONENT_COUNT>
1

> <PUBCHEM_CACTVS_TAUTO_COUNT>
2

> <PUBCHEM_CONFORMER_ID>
017D977000000001

> <PUBCHEM_MMFF94_ENERGY>
71.2278

> <PUBCHEM_FEATURE_SELFOVERLAP>
60.991

> <PUBCHEM_SHAPE_FINGERPRINT>
10 15 18334297604154106515
10692045 39 18113605782491073434
10864689 126 18268712706146400588
10883706 163 18189888897844865692
10904742 38 16953360293429373613
11720765 8 17628082192193772806
11796584 16 9943529574611183567
12120059 20 10519405468949914798
12422481 6 17386279887923638038
12925494 130 18264209102545458765
1361 4 9510590317370521401
13690498 29 15696583592743599815
13726171 33 18340210691810247289
14211702 104 8646478618136180221
14251764 75 18125446315593648297
14341114 328 17167866391149049318
14739800 52 18336253579040913738
14790565 3 18409450301595510814
14848178 5 8430314632189421247
15183329 4 16128385890757644226
15188451 53 12107777545013969595
15575132 122 18413110537598129321
18222031 100 10447660093122651122
19377110 9 17530679948185078715
20238998 120 17692813684416388278
20691028 202 18192713337480256397
21302155 148 18335981987031883413
21307412 95 9295294920008479723
21424621 283 18337391638538345138
22956985 138 16889219591365557331
23379529 103 9367044676354640399
23559900 14 17908421355996944107
23569914 2 17485039169150992088
2747138 104 18188790447453456123
2748736 6 18337659828822656013
2838139 119 18271799147101747838
2916195 48 18270963556592601258
312425 54 12324501135340154174
3418910 222 17474386254497158140
3459 39 18338498829493416432
392239 28 15864071000606114167
44062 13 10447921759793984503
44249763 50 17845639469213793342
5104073 3 18040712520117018723
5219985 13 18413669101963109135
5283173 99 18200593726172995458
550186 72 18410293636300554829
5718773 13 10881694546086247841
636775 72 18197772413939155776
7808743 9 18340200894467533331
7970288 3 9511192845442456460
960060 61 14405192776553120526
9849439 229 18336823070804279319

> <PUBCHEM_SHAPE_MULTIPOLES>
523.98
18.37
4.43
1.32
7.75
3.83
-0.02
16.86
2.34
-6.77
-0.37
1.53
0.09
2.05

> <PUBCHEM_SHAPE_SELFOVERLAP>
1126.78

> <PUBCHEM_SHAPE_VOLUME>
289.5

> <PUBCHEM_COORDINATE_TYPE>
2
5
10

$$$$
44421899
  -OEChem-05102415123D

 48 51  0     1  0  0  0  0  0999 V2000
    2.7091   -1.2340    0.1030 N   0  0  1  0  0  0  0  0  0  0  0  0
   -0.7688   -2.5379   -0.2974 N   0  0  0  0  0  0  0  0  0  0  0  0
   -4.1033    2.0521    0.5378 N   0  0  0  0  0  0  0  0  0  0  0  0
   -4.7938    1.1650   -0.2047 N   0  0  0  0  0  0  0  0  0  0  0  0
    0.5035   -2.3296    0.3600 C   0  0  1  0  0  0  0  0  0  0  0  0
    1.1827   -3.6765    0.6077 C   0  0  0  0  0  0  0  0  0  0  0  0
    1.3834   -1.4192   -0.5053 C   0  0  0  0  0  0  0  0  0  0  0  0
    2.5883   -3.4675    1.1607 C   0  0  0  0  0  0  0  0  0  0  0  0
    3.3989   -2.5201    0.2749 C   0  0  0  0  0  0  0  0  0  0  0  0
    3.5199   -0.3224   -0.7039 C   0  0  0  0  0  0  0  0  0  0  0  0
   -1.7977   -1.6124   -0.2848 C   0  0  0  0  0  0  0  0  0  0  0  0
    3.1102    1.1134   -0.5100 C   0  0  0  0  0  0  0  0  0  0  0  0
   -1.5943   -0.4020    0.4068 C   0  0  0  0  0  0  0  0  0  0  0  0
   -3.0057   -1.9440   -0.9755 C   0  0  0  0  0  0  0  0  0  0  0  0
   -2.7170    0.4116    0.3236 C   0  0  0  0  0  0  0  0  0  0  0  0
    2.1311    1.6756   -1.3290 C   0  0  0  0  0  0  0  0  0  0  0  0
    3.7093    1.8811    0.4884 C   0  0  0  0  0  0  0  0  0  0  0  0
   -3.9561    0.1244   -0.3586 C   0  0  0  0  0  0  0  0  0  0  0  0
   -4.1311   -1.0935   -1.0414 C   0  0  0  0  0  0  0  0  0  0  0  0
   -2.8463    1.6505    0.8847 C   0  0  0  0  0  0  0  0  0  0  0  0
    1.7511    3.0059   -1.1496 C   0  0  0  0  0  0  0  0  0  0  0  0
    3.3296    3.2112    0.6680 C   0  0  0  0  0  0  0  0  0  0  0  0
    2.3505    3.7736   -0.1511 C   0  0  0  0  0  0  0  0  0  0  0  0
   -1.9532    2.4947    1.6957 C   0  0  0  0  0  0  0  0  0  0  0  0
    0.3604   -1.8838    1.3533 H   0  0  0  0  0  0  0  0  0  0  0  0
    1.2437   -4.2488   -0.3275 H   0  0  0  0  0  0  0  0  0  0  0  0
    0.5910   -4.2812    1.3055 H   0  0  0  0  0  0  0  0  0  0  0  0
    1.4779   -1.8441   -1.5150 H   0  0  0  0  0  0  0  0  0  0  0  0
    0.8777   -0.4606   -0.6199 H   0  0  0  0  0  0  0  0  0  0  0  0
    2.5249   -3.0577    2.1768 H   0  0  0  0  0  0  0  0  0  0  0  0
    3.1020   -4.4325    1.2372 H   0  0  0  0  0  0  0  0  0  0  0  0
    4.3719   -2.3610    0.7556 H   0  0  0  0  0  0  0  0  0  0  0  0
    3.5881   -2.9940   -0.6974 H   0  0  0  0  0  0  0  0  0  0  0  0
    3.4981   -0.5880   -1.7700 H   0  0  0  0  0  0  0  0  0  0  0  0
    4.5775   -0.3972   -0.4144 H   0  0  0  0  0  0  0  0  0  0  0  0
   -0.8902   -3.3728   -0.8604 H   0  0  0  0  0  0  0  0  0  0  0  0
   -0.7087   -0.1103    0.9489 H   0  0  0  0  0  0  0  0  0  0  0  0
   -3.0744   -2.9063   -1.4843 H   0  0  0  0  0  0  0  0  0  0  0  0
    1.6677    1.0989   -2.1251 H   0  0  0  0  0  0  0  0  0  0  0  0
    4.4717    1.4548    1.1350 H   0  0  0  0  0  0  0  0  0  0  0  0
   -5.0360   -1.3637   -1.5695 H   0  0  0  0  0  0  0  0  0  0  0  0
    0.9914    3.4448   -1.7897 H   0  0  0  0  0  0  0  0  0  0  0  0
    3.7957    3.8089    1.4459 H   0  0  0  0  0  0  0  0  0  0  0  0
   -4.5595    2.9242    0.7742 H   0  0  0  0  0  0  0  0  0  0  0  0
    2.0549    4.8094   -0.0115 H   0  0  0  0  0  0  0  0  0  0  0  0
   -1.0219    2.6974    1.1568 H   0  0  0  0  0  0  0  0  0  0  0  0
   -2.4130    3.4576    1.9413 H   0  0  0  0  0  0  0  0  0  0  0  0
   -1.7016    1.9943    2.6363 H   0  0  0  0  0  0  0  0  0  0  0  0
  1  7  1  0  0  0  0
  1  9  1  0  0  0  0
  1 10  1  0  0  0  0
  2  5  1  0  0  0  0
  2 11  1  0  0  0  0
  2 36  1  0  0  0  0
  3  4  1  0  0  0  0
  3 20  1  0  0  0  0
  3 44  1  0  0  0  0
  4 18  2  0  0  0  0
  5  6  1  0  0  0  0
  5  7  1  0  0  0  0
  5 25  1  0  0  0  0
  6  8  1  0  0  0  0
  6 26  1  0  0  0  0
  6 27  1  0  0  0  0
  7 28  1  0  0  0  0
  7 29  1  0  0  0  0
  8  9  1  0  0  0  0
  8 30  1  0  0  0  0
  8 31  1  0  0  0  0
  9 32  1  0  0  0  0
  9 33  1  0  0  0  0
 10 12  1  0  0  0  0
 10 34  1  0  0  0  0
 10 35  1  0  0  0  0
 11 13  2  0  0  0  0
 11 14  1  0  0  0  0
 12 16  2  0  0  0  0
 12 17  1  0  0  0  0
 13 15  1  0  0  0  0
 13 37  1  0  0  0  0
 14 19  2  0  0  0  0
 14 38  1  0  0  0  0
 15 18  1  0  0  0  0
 15 20  2  0  0  0  0
 16 21  1  0  0  0  0
 16 39  1  0  0  0  0
 17 22  2  0  0  0  0
 17 40  1  0  0  0  0
 18 19  1  0  0  0  0
 19 41  1  0  0  0  0
 20 24  1  0  0  0  0
 21 23  2  0  0  0  0
 21 42  1  0  0  0  0
 22 23  1  0  0  0  0
 22 43  1  0  0  0  0
 23 45  1  0  0  0  0
 24 46  1  0  0  0  0
 24 47  1  0  0  0  0
 24 48  1  0  0  0  0
M  END
> <PUBCHEM_COMPOUND_CID>
44421899

> <PUBCHEM_CONFORMER_RMSD>
0.8

> <PUBCHEM_CONFORMER_DIVERSEORDER>
1
15
68
23
41
156
84
73
132
141
88
78
26
66
166
143
2
147
158
90
63
155
17
74
129
128
42
4
167
8
36
162
118
111
124
104
27
65
82
58
53
137
87
47
154
83
56
160
70
103
114
49
150
96
40
102
92
110
98
34
29
86
48
119
149
159
133
14
7
130
79
126
100
31
99
75
80
123
101
97
134
161
57
144
151
61
163
139
50
152
112
107
109
120
148
85
39
51
22
43
5
95
91
37
115
52
62
11
16
38
146
140
117
69
64
54
153
30
59
20
9
55
32
19
81
18
28
46
106
94
142
71
24
145
131
77
125
93
157
122
121
67
165
116
6
136
76
25
33
3
13
113
138
60
21
45
164
127
105
72
135
44
108
10
12
35
89

> <PUBCHEM_MMFF94_PARTIAL_CHARGES>
31
1 -0.81
10 0.41
11 0.1
12 -0.14
13 -0.15
14 -0.15
16 -0.15
17 -0.15
18 0.29
19 -0.15
2 -0.87
20 -0.33
21 -0.15
22 -0.15
23 -0.15
24 0.18
3 0.3
36 0.4
37 0.15
38 0.15
39 0.15
4 -0.71
40 0.15
41 0.15
42 0.15
43 0.15
44 0.27
45 0.15
5 0.37
7 0.27
9 0.27

> <PUBCHEM_EFFECTIVE_ROTOR_COUNT>
5.2

> <PUBCHEM_PHARMACOPHORE_FEATURES>
9
1 1 cation
1 2 cation
1 2 donor
1 3 donor
1 4 acceptor
5 3 4 15 18 20 rings
6 1 5 6 7 8 9 rings
6 11 13 14 15 18 19 rings
6 12 16 17 21 22 23 rings

> <PUBCHEM_HEAVY_ATOM_COUNT>
24

> <PUBCHEM_ATOM_DEF_STEREO_COUNT>
0

> <PUBCHEM_ATOM_UDEF_STEREO_COUNT>
1

> <PUBCHEM_BOND_DEF_STEREO_COUNT>
0

> <PUBCHEM_BOND_UDEF_STEREO_COUNT>
0

> <PUBCHEM_ISOTOPIC_ATOM_COUNT>
0

> <PUBCHEM_COMPONENT_COUNT>
1

> <PUBCHEM_CACTVS_TAUTO_COUNT>
2

> <PUBCHEM_CONFORMER_ID>
02A5D30B00000001

> <PUBCHEM_MMFF94_ENERGY>
67.9124

> <PUBCHEM_FEATURE_SELFOVERLAP>
45.804

> <PUBCHEM_SHAPE_FINGERPRINT>
10708813 3 18411424972855291780
11370993 70 18193832876001839660
12788726 201 17108195032248357390
12925494 130 18336830789209287289
13122387 1 17617949027858313180
13583140 156 18042702619463355011
13617811 41 18195792193724020325
138480 1 18265050232897648594
13965767 371 17969765540603313452
14117953 113 17476921255928126533
14466204 15 18408595968856224672
14787075 74 17833827549263167183
14931854 50 18270402818394383301
17492 89 18413673521553405263
17980427 23 18057021554522148158
18681886 176 18270390595223920098
19319366 153 18122608707625892999
19930381 70 18408320021038537973
20567600 299 18267582416471101620
20715895 44 18263061353928653781
20764821 26 16756059983348502465
2132832 1 18197752484704936839
21344244 78 17539106386309938955
21860390 5 18269840830772105726
21864079 5 18413110575762464919
22113638 7 18052257289097848033
22749437 52 18265616678691029748
23558518 356 18337959020323126183
23559900 14 17846506872108222230
345986 75 17101136803279959714
469060 322 17758416440554589731
474 4 18333732441833305559
5048184 11 18265063607178453940
5895379 119 17845097259836955010
6328613 192 18045502178459175868
84936 182 18340766043776006426
9981440 41 18120647195976627946

> <PUBCHEM_SHAPE_MULTIPOLES>
473.98
8.63
5.27
1.18
5.14
0.56
0.07
-3.65
-0.64
-4.62
1.22
0.09
-0.35
-1.82

> <PUBCHEM_SHAPE_SELFOVERLAP>
1026.341

> <PUBCHEM_SHAPE_VOLUME>
256.6

> <PUBCHEM_COORDINATE_TYPE>
2
5
10

$$$$
