49830685
  -OEChem-05102415013D

 38 40  0     0  0  0  0  0  0999 V2000
    6.6998   -0.7461    0.0019 F   0  0  0  0  0  0  0  0  0  0  0  0
    5.1384   -1.8029    1.0849 F   0  0  0  0  0  0  0  0  0  0  0  0
    5.1405   -1.8031   -1.0839 F   0  0  0  0  0  0  0  0  0  0  0  0
    0.7222   -1.2207   -0.0009 O   0  0  0  0  0  0  0  0  0  0  0  0
   -1.1002    0.2501   -0.0005 N   0  0  0  0  0  0  0  0  0  0  0  0
   -4.3305   -2.4055    0.0001 N   0  0  0  0  0  0  0  0  0  0  0  0
    1.0445    1.0956   -0.0006 N   0  0  0  0  0  0  0  0  0  0  0  0
    3.1952    0.0812   -0.0008 N   0  0  0  0  0  0  0  0  0  0  0  0
   -3.5197   -0.1362    0.0000 C   0  0  0  0  0  0  0  0  0  0  0  0
   -2.2021   -0.6134   -0.0005 C   0  0  0  0  0  0  0  0  0  0  0  0
   -4.5679   -1.0802    0.0003 C   0  0  0  0  0  0  0  0  0  0  0  0
   -3.8040    1.2400   -0.0001 C   0  0  0  0  0  0  0  0  0  0  0  0
   -5.1223    1.6867    0.0003 C   0  0  0  0  0  0  0  0  0  0  0  0
   -5.8767   -0.6055    0.0008 C   0  0  0  0  0  0  0  0  0  0  0  0
   -6.1596    0.7625    0.0008 C   0  0  0  0  0  0  0  0  0  0  0  0
   -1.9543   -1.9785   -0.0007 C   0  0  0  0  0  0  0  0  0  0  0  0
   -5.4204    3.1474    0.0005 C   0  0  0  0  0  0  0  0  0  0  0  0
   -3.0444   -2.8249   -0.0003 C   0  0  0  0  0  0  0  0  0  0  0  0
    0.2744   -0.0784   -0.0007 C   0  0  0  0  0  0  0  0  0  0  0  0
    2.4546    1.2121   -0.0007 C   0  0  0  0  0  0  0  0  0  0  0  0
    4.5374    0.2424   -0.0005 C   0  0  0  0  0  0  0  0  0  0  0  0
    2.9900    2.4901   -0.0001 C   0  0  0  0  0  0  0  0  0  0  0  0
    5.1705    1.4749   -0.0001 C   0  0  0  0  0  0  0  0  0  0  0  0
    4.3748    2.6153    0.0002 C   0  0  0  0  0  0  0  0  0  0  0  0
    5.3598   -1.0029    0.0006 C   0  0  0  0  0  0  0  0  0  0  0  0
   -3.0258    1.9966    0.0015 H   0  0  0  0  0  0  0  0  0  0  0  0
   -6.7071   -1.3093    0.0015 H   0  0  0  0  0  0  0  0  0  0  0  0
   -7.1964    1.0884    0.0029 H   0  0  0  0  0  0  0  0  0  0  0  0
   -0.9896   -2.4575   -0.0011 H   0  0  0  0  0  0  0  0  0  0  0  0
   -1.2904    1.2449   -0.0003 H   0  0  0  0  0  0  0  0  0  0  0  0
   -6.4430    3.3496   -0.3358 H   0  0  0  0  0  0  0  0  0  0  0  0
   -4.7473    3.6814   -0.6789 H   0  0  0  0  0  0  0  0  0  0  0  0
   -5.3025    3.5551    1.0095 H   0  0  0  0  0  0  0  0  0  0  0  0
   -2.9138   -3.9022   -0.0003 H   0  0  0  0  0  0  0  0  0  0  0  0
    0.5334    1.9747   -0.0004 H   0  0  0  0  0  0  0  0  0  0  0  0
    2.3646    3.3768    0.0002 H   0  0  0  0  0  0  0  0  0  0  0  0
    6.2506    1.5718    0.0003 H   0  0  0  0  0  0  0  0  0  0  0  0
    4.8331    3.5997    0.0007 H   0  0  0  0  0  0  0  0  0  0  0  0
  1 25  1  0  0  0  0
  2 25  1  0  0  0  0
  3 25  1  0  0  0  0
  4 19  2  0  0  0  0
  5 10  1  0  0  0  0
  5 19  1  0  0  0  0
  5 30  1  0  0  0  0
  6 11  2  0  0  0  0
  6 18  1  0  0  0  0
  7 19  1  0  0  0  0
  7 20  1  0  0  0  0
  7 35  1  0  0  0  0
  8 20  1  0  0  0  0
  8 21  2  0  0  0  0
  9 10  2  0  0  0  0
  9 11  1  0  0  0  0
  9 12  1  0  0  0  0
 10 16  1  0  0  0  0
 11 14  1  0  0  0  0
 12 13  2  0  0  0  0
 12 26  1  0  0  0  0
 13 15  1  0  0  0  0
 13 17  1  0  0  0  0
 14 15  2  0  0  0  0
 14 27  1  0  0  0  0
 15 28  1  0  0  0  0
 16 18  2  0  0  0  0
 16 29  1  0  0  0  0
 17 31  1  0  0  0  0
 17 32  1  0  0  0  0
 17 33  1  0  0  0  0
 18 34  1  0  0  0  0
 20 22  2  0  0  0  0
 21 23  1  0  0  0  0
 21 25  1  0  0  0  0
 22 24  1  0  0  0  0
 22 36  1  0  0  0  0
 23 24  2  0  0  0  0
 23 37  1  0  0  0  0
 24 38  1  0  0  0  0
M  END
> <PUBCHEM_COMPOUND_CID>
49830685

> <PUBCHEM_CONFORMER_RMSD>
0.8

> <PUBCHEM_CONFORMER_DIVERSEORDER>
1
22
16
6
19
9
24
10
11
25
8
4
7
5
26
12
15
18
23
2
3
17
14
21
13
20

> <PUBCHEM_MMFF94_PARTIAL_CHARGES>
34
1 -0.34
10 0.12
11 0.31
12 -0.15
13 -0.14
14 -0.15
15 -0.15
16 -0.15
17 0.14
18 0.16
19 0.69
2 -0.34
20 0.43
21 0.17
22 -0.15
23 -0.15
24 -0.15
25 1.16
26 0.15
27 0.15
28 0.15
29 0.15
3 -0.34
30 0.37
34 0.15
35 0.37
36 0.15
37 0.15
38 0.15
4 -0.57
5 -0.55
6 -0.62
7 -0.55
8 -0.62

> <PUBCHEM_EFFECTIVE_ROTOR_COUNT>
5

> <PUBCHEM_PHARMACOPHORE_FEATURES>
8
1 4 acceptor
1 5 donor
1 6 acceptor
1 7 donor
1 8 acceptor
6 6 9 10 11 16 18 rings
6 8 20 21 22 23 24 rings
6 9 11 12 13 14 15 rings

> <PUBCHEM_HEAVY_ATOM_COUNT>
25

> <PUBCHEM_ATOM_DEF_STEREO_COUNT>
0

> <PUBCHEM_ATOM_UDEF_STEREO_COUNT>
0

> <PUBCHEM_BOND_DEF_STEREO_COUNT>
0

> <PUBCHEM_BOND_UDEF_STEREO_COUNT>
0

> <PUBCHEM_ISOTOPIC_ATOM_COUNT>
0

> <PUBCHEM_COMPONENT_COUNT>
1

> <PUBCHEM_CACTVS_TAUTO_COUNT>
11

> <PUBCHEM_CONFORMER_ID>
02F85B1D00000001

> <PUBCHEM_MMFF94_ENERGY>
71.891

> <PUBCHEM_FEATURE_SELFOVERLAP>
40.681

> <PUBCHEM_SHAPE_FINGERPRINT>
10595046 47 18265332996032368724
10835480 77 18271238421730922016
11405975 8 18409447011650529760
11796584 16 18342459236112255858
12107183 9 18264201405309534200
12166972 35 18408608088748395593
13073987 5 18336827597209225048
13167823 11 18337669827511561754
13785724 45 18052540968052541254
14341114 176 18336550503278751061
14420673 8 18336267851323077026
14904525 67 15430034361572127205
14933364 13 18409451401059938644
15042514 8 18192153918353669827
15183329 4 18410011022318409321
15196674 1 18410855507378089792
15250474 111 18268134526144047398
15419008 42 17986110704025197485
17844677 252 18337961180701959184
1813 80 16877938373554907564
19611394 137 17969799639060573905
19958102 18 18334849528926141199
20281389 69 18408323285335197105
21065198 57 18338797947705363360
21236236 1 18340768230436463039
21267235 1 18336271219072913131
21279426 13 18340488880630131836
21315763 129 18412545431222810063
21315763 28 18410854373907955623
21315764 268 18338230570121234221
23522609 53 17823441343383733580
23536379 177 18410292518796518712
23559900 14 18343578538421480178
23569943 247 16951952982289451570
2838139 119 18412258411960694309
3004659 81 18408887339437565656
335352 9 18410573972282484381
4073 2 18042126621351549322
4197921 191 18335143132748492709
4214541 1 18410574011179919141
5104073 3 18411138073297619464
5283173 99 18412263939151042001
531348 171 18202280312685916543
559249 180 18411416194095093547
59755656 215 18340489954487903054
59755656 520 18334852810697918959
6327066 14 18190172396621487389
633830 44 17749387126275656360
90127 26 18260837028498606008
9965369 4 18410291389599798057
9995097 60 18341895181856153142
9996256 80 18411981395033267127

> <PUBCHEM_SHAPE_MULTIPOLES>
466.87
17.77
3.1
0.65
7.76
0.56
0
1.93
0.01
-1.41
0
0.28
-0.1
0

> <PUBCHEM_SHAPE_SELFOVERLAP>
1024.724

> <PUBCHEM_SHAPE_VOLUME>
251.8

> <PUBCHEM_COORDINATE_TYPE>
2
5
10

$$$$
49830693
  -OEChem-05102415013D

 35 37  0     0  0  0  0  0  0999 V2000
   -6.9110    0.8261   -0.0005 F   0  0  0  0  0  0  0  0  0  0  0  0
    6.7061    1.0140   -0.0021 F   0  0  0  0  0  0  0  0  0  0  0  0
    5.0773    1.9636   -1.0851 F   0  0  0  0  0  0  0  0  0  0  0  0
    5.0793    1.9642    1.0837 F   0  0  0  0  0  0  0  0  0  0  0  0
    0.7100    1.0864    0.0009 O   0  0  0  0  0  0  0  0  0  0  0  0
   -1.0096   -0.5034    0.0007 N   0  0  0  0  0  0  0  0  0  0  0  0
   -4.4118    1.9281    0.0005 N   0  0  0  0  0  0  0  0  0  0  0  0
    1.1871   -1.2030    0.0009 N   0  0  0  0  0  0  0  0  0  0  0  0
    3.2649   -0.0466    0.0008 N   0  0  0  0  0  0  0  0  0  0  0  0
   -3.4492   -0.2812    0.0000 C   0  0  0  0  0  0  0  0  0  0  0  0
   -2.1669    0.2842    0.0007 C   0  0  0  0  0  0  0  0  0  0  0  0
   -4.5589    0.5897    0.0000 C   0  0  0  0  0  0  0  0  0  0  0  0
   -3.6398   -1.6733   -0.0004 C   0  0  0  0  0  0  0  0  0  0  0  0
   -2.0121    1.6630    0.0007 C   0  0  0  0  0  0  0  0  0  0  0  0
   -5.8325    0.0278   -0.0005 C   0  0  0  0  0  0  0  0  0  0  0  0
   -4.9249   -2.2083   -0.0012 C   0  0  0  0  0  0  0  0  0  0  0  0
   -6.0224   -1.3564   -0.0011 C   0  0  0  0  0  0  0  0  0  0  0  0
   -3.1570    2.4336    0.0005 C   0  0  0  0  0  0  0  0  0  0  0  0
    0.3399   -0.0833    0.0009 C   0  0  0  0  0  0  0  0  0  0  0  0
    2.6019   -1.2247    0.0009 C   0  0  0  0  0  0  0  0  0  0  0  0
    4.6149   -0.1173    0.0004 C   0  0  0  0  0  0  0  0  0  0  0  0
    3.2219   -2.4638    0.0003 C   0  0  0  0  0  0  0  0  0  0  0  0
    5.3292   -1.3045    0.0001 C   0  0  0  0  0  0  0  0  0  0  0  0
    4.6120   -2.4957    0.0000 C   0  0  0  0  0  0  0  0  0  0  0  0
    5.3517    1.1804   -0.0008 C   0  0  0  0  0  0  0  0  0  0  0  0
   -2.8205   -2.3846   -0.0004 H   0  0  0  0  0  0  0  0  0  0  0  0
   -1.1334   -1.5086    0.0006 H   0  0  0  0  0  0  0  0  0  0  0  0
   -1.0818    2.2059    0.0009 H   0  0  0  0  0  0  0  0  0  0  0  0
   -5.0692   -3.2844   -0.0017 H   0  0  0  0  0  0  0  0  0  0  0  0
   -7.0287   -1.7647   -0.0016 H   0  0  0  0  0  0  0  0  0  0  0  0
   -3.0996    3.5173    0.0006 H   0  0  0  0  0  0  0  0  0  0  0  0
    0.7361   -2.1144    0.0008 H   0  0  0  0  0  0  0  0  0  0  0  0
    2.6574   -3.3905    0.0002 H   0  0  0  0  0  0  0  0  0  0  0  0
    6.4134   -1.3287   -0.0003 H   0  0  0  0  0  0  0  0  0  0  0  0
    5.1353   -3.4471   -0.0004 H   0  0  0  0  0  0  0  0  0  0  0  0
  1 15  1  0  0  0  0
  2 25  1  0  0  0  0
  3 25  1  0  0  0  0
  4 25  1  0  0  0  0
  5 19  2  0  0  0  0
  6 11  1  0  0  0  0
  6 19  1  0  0  0  0
  6 27  1  0  0  0  0
  7 12  2  0  0  0  0
  7 18  1  0  0  0  0
  8 19  1  0  0  0  0
  8 20  1  0  0  0  0
  8 32  1  0  0  0  0
  9 20  1  0  0  0  0
  9 21  2  0  0  0  0
 10 11  2  0  0  0  0
 10 12  1  0  0  0  0
 10 13  1  0  0  0  0
 11 14  1  0  0  0  0
 12 15  1  0  0  0  0
 13 16  2  0  0  0  0
 13 26  1  0  0  0  0
 14 18  2  0  0  0  0
 14 28  1  0  0  0  0
 15 17  2  0  0  0  0
 16 17  1  0  0  0  0
 16 29  1  0  0  0  0
 17 30  1  0  0  0  0
 18 31  1  0  0  0  0
 20 22  2  0  0  0  0
 21 23  1  0  0  0  0
 21 25  1  0  0  0  0
 22 24  1  0  0  0  0
 22 33  1  0  0  0  0
 23 24  2  0  0  0  0
 23 34  1  0  0  0  0
 24 35  1  0  0  0  0
M  END
> <PUBCHEM_COMPOUND_CID>
49830693

> <PUBCHEM_CONFORMER_RMSD>
0.8

> <PUBCHEM_CONFORMER_DIVERSEORDER>
1
22
16
6
17
15
14
8
7
9
10
4
23
12
5
18
2
24
3
11
13
21
20
19

> <PUBCHEM_MMFF94_PARTIAL_CHARGES>
34
1 -0.19
11 0.12
12 0.31
13 -0.15
14 -0.15
15 0.19
16 -0.15
17 -0.15
18 0.16
19 0.69
2 -0.34
20 0.43
21 0.17
22 -0.15
23 -0.15
24 -0.15
25 1.16
26 0.15
27 0.37
28 0.15
29 0.15
3 -0.34
30 0.15
31 0.15
32 0.37
33 0.15
34 0.15
35 0.15
4 -0.34
5 -0.57
6 -0.55
7 -0.62
8 -0.55
9 -0.62

> <PUBCHEM_EFFECTIVE_ROTOR_COUNT>
5

> <PUBCHEM_PHARMACOPHORE_FEATURES>
8
1 5 acceptor
1 6 donor
1 7 acceptor
1 8 donor
1 9 acceptor
6 10 12 13 15 16 17 rings
6 7 10 11 12 14 18 rings
6 9 20 21 22 23 24 rings

> <PUBCHEM_HEAVY_ATOM_COUNT>
25

> <PUBCHEM_ATOM_DEF_STEREO_COUNT>
0

> <PUBCHEM_ATOM_UDEF_STEREO_COUNT>
0

> <PUBCHEM_BOND_DEF_STEREO_COUNT>
0

> <PUBCHEM_BOND_UDEF_STEREO_COUNT>
0

> <PUBCHEM_ISOTOPIC_ATOM_COUNT>
0

> <PUBCHEM_COMPONENT_COUNT>
1

> <PUBCHEM_CACTVS_TAUTO_COUNT>
11

> <PUBCHEM_CONFORMER_ID>
02F85B2500000001

> <PUBCHEM_MMFF94_ENERGY>
69.1667

> <PUBCHEM_FEATURE_SELFOVERLAP>
40.681

> <PUBCHEM_SHAPE_FINGERPRINT>
10595046 47 18410012126167455666
10835480 77 18409722933535616373
10968037 39 18410011048916492055
11524674 6 16415477160568909783
12107183 9 17617094707291578058
12236239 1 18260830388906375447
12516196 113 18273213110211893073
12616971 3 17917417706105585110
13073987 5 18410856533869992457
13167823 11 18410290268297348650
13533116 47 18410855430527926346
14251732 16 18411418436057290635
14341114 176 18410578366313531191
14461889 52 18337105769815398370
14528608 73 18410859863076405774
14904525 67 15913609466804165899
14933364 13 18412827979915009704
15196674 1 18410573955118387042
15927050 60 17479734262007296708
15961568 22 18187087265208321356
16110190 28 18342461435240850591
17834072 33 18410575067646928430
17844677 252 18339649931994006250
17857418 61 18410293614345416943
1813 80 17022907821919835268
18335252 98 18409172138307935779
20511986 3 18186790371108814575
21236236 1 18340769252554309395
21267235 1 18339086994794040303
21315763 129 18336544907242001164
23522609 53 18058475186657368353
23559900 14 18339916113157107297
239999 70 18271811164626607174
245318 6 17098920535962920524
3004659 81 18336265648495224362
3246875 12 18268706302586909008
329604 57 18201720639280657200
335352 9 18411416195186831133
34797466 226 17846505833058517164
350125 39 18412825806878173601
3545911 37 18410293605697505524
4073 2 18114187457842340146
4214541 1 18338798905846898339
4325135 7 18409449197925988052
497634 4 18410857612350356749
5104073 3 18411137991746059826
513532 50 18342189847705831918
5312625 73 18342174501033379954
67856867 119 18189340228662601549
7495541 125 17917986179091491402

> <PUBCHEM_SHAPE_MULTIPOLES>
459.6
18.22
2.65
0.65
3.38
0.11
0
-0.54
0.01
0.83
0
0.3
-0.11
0

> <PUBCHEM_SHAPE_SELFOVERLAP>
1014.218

> <PUBCHEM_SHAPE_VOLUME>
245.3

> <PUBCHEM_COORDINATE_TYPE>
2
5
10

$$$$
24859161
  -OEChem-05102415013D

 48 51  0     0  0  0  0  0  0999 V2000
   -7.9306   -0.1773    0.0363 F   0  0  0  0  0  0  0  0  0  0  0  0
   -6.7684   -1.6692   -1.0256 F   0  0  0  0  0  0  0  0  0  0  0  0
   -6.7390   -1.6170    1.1481 F   0  0  0  0  0  0  0  0  0  0  0  0
    7.0515   -2.8712    0.1646 O   0  0  0  0  0  0  0  0  0  0  0  0
    1.0278   -0.6567   -0.0028 O   0  0  0  0  0  0  0  0  0  0  0  0
    5.6623   -0.4360   -0.0328 N   0  0  0  0  0  0  0  0  0  0  0  0
    3.5291    0.5890   -0.0392 N   0  0  0  0  0  0  0  0  0  0  0  0
    1.4020    1.6514   -0.0468 N   0  0  0  0  0  0  0  0  0  0  0  0
   -0.7612    0.8544   -0.0211 N   0  0  0  0  0  0  0  0  0  0  0  0
   -4.0508   -1.7265    0.0437 N   0  0  0  0  0  0  0  0  0  0  0  0
    6.6042   -0.6645    1.0684 C   0  0  0  0  0  0  0  0  0  0  0  0
    5.1222   -1.6518   -0.6565 C   0  0  0  0  0  0  0  0  0  0  0  0
    7.6643   -1.6726    0.6387 C   0  0  0  0  0  0  0  0  0  0  0  0
    6.2615   -2.6067   -0.9945 C   0  0  0  0  0  0  0  0  0  0  0  0
    4.8746    0.7197   -0.0485 C   0  0  0  0  0  0  0  0  0  0  0  0
    5.5353    1.9373   -0.0733 C   0  0  0  0  0  0  0  0  0  0  0  0
   -3.1884    0.5232   -0.0022 C   0  0  0  0  0  0  0  0  0  0  0  0
    2.8142    1.7362   -0.0555 C   0  0  0  0  0  0  0  0  0  0  0  0
   -4.2578   -0.3963    0.0206 C   0  0  0  0  0  0  0  0  0  0  0  0
   -1.8820    0.0159   -0.0001 C   0  0  0  0  0  0  0  0  0  0  0  0
    4.7657    3.0953   -0.0894 C   0  0  0  0  0  0  0  0  0  0  0  0
   -5.5553    0.1082    0.0185 C   0  0  0  0  0  0  0  0  0  0  0  0
    3.3785    3.0015   -0.0804 C   0  0  0  0  0  0  0  0  0  0  0  0
   -3.4410    1.9053   -0.0262 C   0  0  0  0  0  0  0  0  0  0  0  0
   -5.8069    1.4822   -0.0053 C   0  0  0  0  0  0  0  0  0  0  0  0
   -1.6654   -1.3543    0.0238 C   0  0  0  0  0  0  0  0  0  0  0  0
   -4.7487    2.3822   -0.0277 C   0  0  0  0  0  0  0  0  0  0  0  0
    0.6057    0.4951   -0.0216 C   0  0  0  0  0  0  0  0  0  0  0  0
   -6.7288   -0.8217    0.0418 C   0  0  0  0  0  0  0  0  0  0  0  0
   -2.7747   -2.1753    0.0449 C   0  0  0  0  0  0  0  0  0  0  0  0
    6.0457   -1.0567    1.9273 H   0  0  0  0  0  0  0  0  0  0  0  0
    7.1019    0.2577    1.3866 H   0  0  0  0  0  0  0  0  0  0  0  0
    4.5744   -1.4146   -1.5763 H   0  0  0  0  0  0  0  0  0  0  0  0
    4.4291   -2.1330    0.0445 H   0  0  0  0  0  0  0  0  0  0  0  0
    8.2981   -1.9340    1.4920 H   0  0  0  0  0  0  0  0  0  0  0  0
    8.3134   -1.2606   -0.1434 H   0  0  0  0  0  0  0  0  0  0  0  0
    6.9019   -2.2003   -1.7868 H   0  0  0  0  0  0  0  0  0  0  0  0
    5.8571   -3.5592   -1.3510 H   0  0  0  0  0  0  0  0  0  0  0  0
    6.6176    2.0119   -0.0955 H   0  0  0  0  0  0  0  0  0  0  0  0
    5.2460    4.0689   -0.1125 H   0  0  0  0  0  0  0  0  0  0  0  0
    2.7732    3.9021   -0.0939 H   0  0  0  0  0  0  0  0  0  0  0  0
   -2.6544    2.6523   -0.0443 H   0  0  0  0  0  0  0  0  0  0  0  0
    0.9106    2.5416   -0.0601 H   0  0  0  0  0  0  0  0  0  0  0  0
   -0.9300    1.8530   -0.0385 H   0  0  0  0  0  0  0  0  0  0  0  0
   -6.8216    1.8702   -0.0069 H   0  0  0  0  0  0  0  0  0  0  0  0
   -0.7118   -1.8550    0.0277 H   0  0  0  0  0  0  0  0  0  0  0  0
   -4.9407    3.4507   -0.0462 H   0  0  0  0  0  0  0  0  0  0  0  0
   -2.6688   -3.2552    0.0640 H   0  0  0  0  0  0  0  0  0  0  0  0
  1 29  1  0  0  0  0
  2 29  1  0  0  0  0
  3 29  1  0  0  0  0
  4 13  1  0  0  0  0
  4 14  1  0  0  0  0
  5 28  2  0  0  0  0
  6 11  1  0  0  0  0
  6 12  1  0  0  0  0
  6 15  1  0  0  0  0
  7 15  1  0  0  0  0
  7 18  2  0  0  0  0
  8 18  1  0  0  0  0
  8 28  1  0  0  0  0
  8 43  1  0  0  0  0
  9 20  1  0  0  0  0
  9 28  1  0  0  0  0
  9 44  1  0  0  0  0
 10 19  2  0  0  0  0
 10 30  1  0  0  0  0
 11 13  1  0  0  0  0
 11 31  1  0  0  0  0
 11 32  1  0  0  0  0
 12 14  1  0  0  0  0
 12 33  1  0  0  0  0
 12 34  1  0  0  0  0
 13 35  1  0  0  0  0
 13 36  1  0  0  0  0
 14 37  1  0  0  0  0
 14 38  1  0  0  0  0
 15 16  2  0  0  0  0
 16 21  1  0  0  0  0
 16 39  1  0  0  0  0
 17 19  1  0  0  0  0
 17 20  2  0  0  0  0
 17 24  1  0  0  0  0
 18 23  1  0  0  0  0
 19 22  1  0  0  0  0
 20 26  1  0  0  0  0
 21 23  2  0  0  0  0
 21 40  1  0  0  0  0
 22 25  2  0  0  0  0
 22 29  1  0  0  0  0
 23 41  1  0  0  0  0
 24 27  2  0  0  0  0
 24 42  1  0  0  0  0
 25 27  1  0  0  0  0
 25 45  1  0  0  0  0
 26 30  2  0  0  0  0
 26 46  1  0  0  0  0
 27 47  1  0  0  0  0
 30 48  1  0  0  0  0
M  END
> <PUBCHEM_COMPOUND_CID>
24859161

> <PUBCHEM_CONFORMER_RMSD>
1

> <PUBCHEM_CONFORMER_DIVERSEORDER>
1
13
14
31
5
4
19
18
9
8
2
35
7
24
33
11
22
10
17
34
20
12
3
32
23
16
6
29
30
21
25
26
15
27
28

> <PUBCHEM_MMFF94_PARTIAL_CHARGES>
39
1 -0.34
10 -0.62
11 0.37
12 0.37
13 0.28
14 0.28
15 0.41
16 -0.15
18 0.43
19 0.31
2 -0.34
20 0.12
21 -0.15
22 -0.14
23 -0.15
24 -0.15
25 -0.15
26 -0.15
27 -0.15
28 0.69
29 1.16
3 -0.34
30 0.16
39 0.15
4 -0.56
40 0.15
41 0.15
42 0.15
43 0.37
44 0.37
45 0.15
46 0.15
47 0.15
48 0.15
5 -0.57
6 -0.84
7 -0.62
8 -0.55
9 -0.55

> <PUBCHEM_EFFECTIVE_ROTOR_COUNT>
7.2

> <PUBCHEM_PHARMACOPHORE_FEATURES>
10
1 10 acceptor
1 4 acceptor
1 5 acceptor
1 6 cation
1 8 donor
1 9 donor
6 10 17 19 20 26 30 rings
6 17 19 22 24 25 27 rings
6 4 6 11 12 13 14 rings
6 7 15 16 18 21 23 rings

> <PUBCHEM_HEAVY_ATOM_COUNT>
30

> <PUBCHEM_ATOM_DEF_STEREO_COUNT>
0

> <PUBCHEM_ATOM_UDEF_STEREO_COUNT>
0

> <PUBCHEM_BOND_DEF_STEREO_COUNT>
0

> <PUBCHEM_BOND_UDEF_STEREO_COUNT>
0

> <PUBCHEM_ISOTOPIC_ATOM_COUNT>
0

> <PUBCHEM_COMPONENT_COUNT>
1

> <PUBCHEM_CACTVS_TAUTO_COUNT>
11

> <PUBCHEM_CONFORMER_ID>
017B521900000001

> <PUBCHEM_MMFF94_ENERGY>
98.6355

> <PUBCHEM_FEATURE_SELFOVERLAP>
50.828

> <PUBCHEM_SHAPE_FINGERPRINT>
10411042 1 18266459812001400876
10580692 12 18411419531068047377
10595046 47 18266741474949662748
11297010 23 18195512702716181365
11456790 92 18059586793281717889
11719270 70 17989771085872282206
11991303 11 14201408204475553176
12107183 9 18268436724464295816
12166972 35 18335704970142243869
12592606 108 18410011005819281874
13073987 5 18341896311659957456
13533116 47 18342739650147570592
13782708 43 18261112971567754661
14251764 18 18409166628017726132
15183329 4 18411986870784162752
15419008 42 17841995490127095668
17844677 252 18410863156984356552
19611394 137 17970078936320209811
1979834 28 17489590022772813806
19958102 18 18333725832189802367
21130935 74 18343021107485248947
21267235 1 18335143094219809537
21279426 13 18409165472355181564
21315763 129 18411700954711262284
21315763 28 18410572894546301555
21315764 268 18409444825528838493
23559900 14 18341325652155467184
23569943 247 17532643543071805170
3004659 81 18334296457830023328
3103668 31 17897159113896160900
3383291 50 18410291415222812051
4073 2 17969787569601162912
4144715 1 18334584571929479056
4197921 191 18337397127116594276
45377200 153 14852187138460900473
5080951 261 15912747459011308829
5104073 3 18342179994254860752
559249 180 18410571756306063147
6441014 3 17119178629799383598
6695519 79 17476945900877863184
9831232 110 18338519625962863254
9962374 69 18340477967709030798
9965369 4 18411138017637403137
9996256 80 18411981386337740077

> <PUBCHEM_SHAPE_MULTIPOLES>
558.92
23.95
3.27
0.75
0.09
0.69
0.02
-10.49
1.32
4.2
-0.26
0.35
-0.25
0.19

> <PUBCHEM_SHAPE_SELFOVERLAP>
1224.639

> <PUBCHEM_SHAPE_VOLUME>
301.3

> <PUBCHEM_COORDINATE_TYPE>
2
5
10

$$$$
49830700
  -OEChem-05102415023D

 38 40  0     0  0  0  0  0  0999 V2000
   -6.8315    2.2330   -0.0001 F   0  0  0  0  0  0  0  0  0  0  0  0
   -7.3714    0.4268   -1.0837 F   0  0  0  0  0  0  0  0  0  0  0  0
   -7.3705    0.4276    1.0851 F   0  0  0  0  0  0  0  0  0  0  0  0
    7.6707   -0.5141    0.0017 F   0  0  0  0  0  0  0  0  0  0  0  0
    6.1542   -1.6343    1.0848 F   0  0  0  0  0  0  0  0  0  0  0  0
    6.1560   -1.6343   -1.0841 F   0  0  0  0  0  0  0  0  0  0  0  0
    1.7176   -1.2339   -0.0008 O   0  0  0  0  0  0  0  0  0  0  0  0
   -0.1637    0.1607   -0.0001 N   0  0  0  0  0  0  0  0  0  0  0  0
   -3.2833   -2.6240    0.0000 N   0  0  0  0  0  0  0  0  0  0  0  0
    1.9445    1.0935   -0.0004 N   0  0  0  0  0  0  0  0  0  0  0  0
    4.1350    0.1685   -0.0008 N   0  0  0  0  0  0  0  0  0  0  0  0
   -2.5650   -0.3238   -0.0001 C   0  0  0  0  0  0  0  0  0  0  0  0
   -3.5741   -1.3094    0.0001 C   0  0  0  0  0  0  0  0  0  0  0  0
   -1.2291   -0.7473   -0.0001 C   0  0  0  0  0  0  0  0  0  0  0  0
   -5.2391    0.4675    0.0001 C   0  0  0  0  0  0  0  0  0  0  0  0
   -2.9047    1.0398   -0.0005 C   0  0  0  0  0  0  0  0  0  0  0  0
   -4.9011   -0.8880    0.0004 C   0  0  0  0  0  0  0  0  0  0  0  0
   -4.2400    1.4328   -0.0005 C   0  0  0  0  0  0  0  0  0  0  0  0
   -0.9263   -2.1013   -0.0004 C   0  0  0  0  0  0  0  0  0  0  0  0
   -1.9812   -2.9910   -0.0004 C   0  0  0  0  0  0  0  0  0  0  0  0
   -6.6731    0.8774    0.0003 C   0  0  0  0  0  0  0  0  0  0  0  0
    1.2233   -0.1111   -0.0005 C   0  0  0  0  0  0  0  0  0  0  0  0
    3.3487    1.2681   -0.0006 C   0  0  0  0  0  0  0  0  0  0  0  0
    5.4696    0.3847   -0.0005 C   0  0  0  0  0  0  0  0  0  0  0  0
    3.8312    2.5669    0.0001 C   0  0  0  0  0  0  0  0  0  0  0  0
    6.0514    1.6421   -0.0001 C   0  0  0  0  0  0  0  0  0  0  0  0
    5.2096    2.7488    0.0003 C   0  0  0  0  0  0  0  0  0  0  0  0
    6.3423   -0.8258    0.0005 C   0  0  0  0  0  0  0  0  0  0  0  0
   -2.1668    1.8351   -0.0008 H   0  0  0  0  0  0  0  0  0  0  0  0
   -5.6958   -1.6329    0.0007 H   0  0  0  0  0  0  0  0  0  0  0  0
   -4.4783    2.4926   -0.0008 H   0  0  0  0  0  0  0  0  0  0  0  0
    0.0572   -2.5405   -0.0005 H   0  0  0  0  0  0  0  0  0  0  0  0
   -0.3954    1.1467    0.0001 H   0  0  0  0  0  0  0  0  0  0  0  0
   -1.8071   -4.0622   -0.0006 H   0  0  0  0  0  0  0  0  0  0  0  0
    1.3976    1.9509    0.0000 H   0  0  0  0  0  0  0  0  0  0  0  0
    3.1699    3.4272    0.0005 H   0  0  0  0  0  0  0  0  0  0  0  0
    7.1266    1.7834    0.0002 H   0  0  0  0  0  0  0  0  0  0  0  0
    5.6271    3.7513    0.0007 H   0  0  0  0  0  0  0  0  0  0  0  0
  1 21  1  0  0  0  0
  2 21  1  0  0  0  0
  3 21  1  0  0  0  0
  4 28  1  0  0  0  0
  5 28  1  0  0  0  0
  6 28  1  0  0  0  0
  7 22  2  0  0  0  0
  8 14  1  0  0  0  0
  8 22  1  0  0  0  0
  8 33  1  0  0  0  0
  9 13  2  0  0  0  0
  9 20  1  0  0  0  0
 10 22  1  0  0  0  0
 10 23  1  0  0  0  0
 10 35  1  0  0  0  0
 11 23  1  0  0  0  0
 11 24  2  0  0  0  0
 12 13  1  0  0  0  0
 12 14  2  0  0  0  0
 12 16  1  0  0  0  0
 13 17  1  0  0  0  0
 14 19  1  0  0  0  0
 15 17  2  0  0  0  0
 15 18  1  0  0  0  0
 15 21  1  0  0  0  0
 16 18  2  0  0  0  0
 16 29  1  0  0  0  0
 17 30  1  0  0  0  0
 18 31  1  0  0  0  0
 19 20  2  0  0  0  0
 19 32  1  0  0  0  0
 20 34  1  0  0  0  0
 23 25  2  0  0  0  0
 24 26  1  0  0  0  0
 24 28  1  0  0  0  0
 25 27  1  0  0  0  0
 25 36  1  0  0  0  0
 26 27  2  0  0  0  0
 26 37  1  0  0  0  0
 27 38  1  0  0  0  0
M  END
> <PUBCHEM_COMPOUND_CID>
49830700

> <PUBCHEM_CONFORMER_RMSD>
0.8

> <PUBCHEM_CONFORMER_DIVERSEORDER>
1
27
7
9
10
11
18
20
24
5
22
8
4
28
17
15
21
12
23
19
25
14
26
3
16
2
6
13

> <PUBCHEM_MMFF94_PARTIAL_CHARGES>
37
1 -0.34
10 -0.55
11 -0.62
13 0.31
14 0.12
15 -0.14
16 -0.15
17 -0.15
18 -0.15
19 -0.15
2 -0.34
20 0.16
21 1.16
22 0.69
23 0.43
24 0.17
25 -0.15
26 -0.15
27 -0.15
28 1.16
29 0.15
3 -0.34
30 0.15
31 0.15
32 0.15
33 0.37
34 0.15
35 0.37
36 0.15
37 0.15
38 0.15
4 -0.34
5 -0.34
6 -0.34
7 -0.57
8 -0.55
9 -0.62

> <PUBCHEM_EFFECTIVE_ROTOR_COUNT>
6

> <PUBCHEM_PHARMACOPHORE_FEATURES>
8
1 10 donor
1 11 acceptor
1 7 acceptor
1 8 donor
1 9 acceptor
6 11 23 24 25 26 27 rings
6 12 13 15 16 17 18 rings
6 9 12 13 14 19 20 rings

> <PUBCHEM_HEAVY_ATOM_COUNT>
28

> <PUBCHEM_ATOM_DEF_STEREO_COUNT>
0

> <PUBCHEM_ATOM_UDEF_STEREO_COUNT>
0

> <PUBCHEM_BOND_DEF_STEREO_COUNT>
0

> <PUBCHEM_BOND_UDEF_STEREO_COUNT>
0

> <PUBCHEM_ISOTOPIC_ATOM_COUNT>
0

> <PUBCHEM_COMPONENT_COUNT>
1

> <PUBCHEM_CACTVS_TAUTO_COUNT>
11

> <PUBCHEM_CONFORMER_ID>
02F85B2C00000001

> <PUBCHEM_MMFF94_ENERGY>
72.3473

> <PUBCHEM_FEATURE_SELFOVERLAP>
40.681

> <PUBCHEM_SHAPE_FINGERPRINT>
10 15 18187370952366833097
10411042 1 17617941774687821931
10595046 47 18121499313509457180
10835480 77 18271522121685243408
11315181 36 17489872665099374747
11719270 70 17847062168957761110
11796584 16 18342740750007559170
12107183 9 18336822001399725034
12236239 1 18260265282446640531
12516196 113 8286200548014774623
13073987 5 18264770046490404058
14117953 113 18260265218792875941
14257110 125 18409729565413085275
14341114 176 18336267928827381396
14347424 109 18411412922089617504
14904525 67 15502367954930692334
14933364 13 18408042935265215688
15183329 4 18342462530256927672
15196674 1 18338797931073899492
1577012 14 18339922718246868884
15849732 13 17821730537686925765
17844677 252 18338242673507210096
18335252 114 18412255138736867221
18608769 82 18340209708853293699
19611394 137 17969236693191045353
20281389 69 18334575745951267397
21033648 29 17987506186413560408
21236236 1 18341049739736372079
21279426 13 18412266151175023078
21585482 111 18119529835373143965
21859007 373 17896029958519249453
23559900 14 18270956967943886552
249057 3 18410856568762480716
2838139 119 18413385437101411245
3004659 81 18409168823262699752
3103668 31 18043809788960616364
335352 9 18410856568577949156
350125 39 18335980882950689377
3545911 37 18409449180804264317
3633792 109 18271244907405130737
4073 2 18042126630147205730
4144715 1 17971481937924605506
4214541 1 18410574028528495940
5104073 3 18337107977380758498
559249 180 18411980282125352870
59755656 215 18410294670712388046
59755656 520 18335696157338318439
6299153 45 18338801113212208168
9995097 60 18413390947417812358

> <PUBCHEM_SHAPE_MULTIPOLES>
506.79
21.83
2.76
0.7
4.04
0.42
0
-6.33
-0.01
0.66
0
-0.08
0.06
0

> <PUBCHEM_SHAPE_SELFOVERLAP>
1116.951

> <PUBCHEM_SHAPE_VOLUME>
271.9

> <PUBCHEM_COORDINATE_TYPE>
2
5
10

$$$$
24859296
  -OEChem-05102415023D

 31 33  0     0  0  0  0  0  0999 V2000
   -5.9538   -0.2459    0.0018 F   0  0  0  0  0  0  0  0  0  0  0  0
    1.5442   -1.6336   -0.0012 O   0  0  0  0  0  0  0  0  0  0  0  0
    0.0796    0.1938   -0.0013 N   0  0  0  0  0  0  0  0  0  0  0  0
   -3.6454   -1.7064    0.0007 N   0  0  0  0  0  0  0  0  0  0  0  0
    2.3559    0.5597   -0.0017 N   0  0  0  0  0  0  0  0  0  0  0  0
    4.2610   -0.8794    0.0000 N   0  0  0  0  0  0  0  0  0  0  0  0
    5.9146    1.3860    0.0013 N   0  0  0  0  0  0  0  0  0  0  0  0
   -2.3660    0.3357   -0.0004 C   0  0  0  0  0  0  0  0  0  0  0  0
   -1.1816   -0.4136   -0.0011 C   0  0  0  0  0  0  0  0  0  0  0  0
   -3.5924   -0.3610    0.0005 C   0  0  0  0  0  0  0  0  0  0  0  0
   -2.3478    1.7408   -0.0006 C   0  0  0  0  0  0  0  0  0  0  0  0
   -1.2329   -1.8000   -0.0008 C   0  0  0  0  0  0  0  0  0  0  0  0
   -4.7686    0.3838    0.0010 C   0  0  0  0  0  0  0  0  0  0  0  0
   -3.5393    2.4604    0.0000 C   0  0  0  0  0  0  0  0  0  0  0  0
   -4.7511    1.7807    0.0008 C   0  0  0  0  0  0  0  0  0  0  0  0
   -2.4794   -2.3924    0.0001 C   0  0  0  0  0  0  0  0  0  0  0  0
    1.3519   -0.4219   -0.0013 C   0  0  0  0  0  0  0  0  0  0  0  0
    3.7581    0.3712   -0.0018 C   0  0  0  0  0  0  0  0  0  0  0  0
    4.5704    1.4838   -0.0010 C   0  0  0  0  0  0  0  0  0  0  0  0
    5.6052   -0.9773    0.0021 C   0  0  0  0  0  0  0  0  0  0  0  0
    6.4174    0.1354    0.0029 C   0  0  0  0  0  0  0  0  0  0  0  0
   -1.4322    2.3226   -0.0013 H   0  0  0  0  0  0  0  0  0  0  0  0
   -0.3935   -2.4749   -0.0013 H   0  0  0  0  0  0  0  0  0  0  0  0
    0.1062    1.2063   -0.0014 H   0  0  0  0  0  0  0  0  0  0  0  0
   -3.5224    3.5461   -0.0002 H   0  0  0  0  0  0  0  0  0  0  0  0
   -5.6856    2.3339    0.0013 H   0  0  0  0  0  0  0  0  0  0  0  0
   -2.5834   -3.4727    0.0003 H   0  0  0  0  0  0  0  0  0  0  0  0
    2.0464    1.5284   -0.0020 H   0  0  0  0  0  0  0  0  0  0  0  0
    4.1791    2.4948   -0.0016 H   0  0  0  0  0  0  0  0  0  0  0  0
    6.0099   -1.9818    0.0034 H   0  0  0  0  0  0  0  0  0  0  0  0
    7.4975    0.0559    0.0048 H   0  0  0  0  0  0  0  0  0  0  0  0
  1 13  1  0  0  0  0
  2 17  2  0  0  0  0
  3  9  1  0  0  0  0
  3 17  1  0  0  0  0
  3 24  1  0  0  0  0
  4 10  2  0  0  0  0
  4 16  1  0  0  0  0
  5 17  1  0  0  0  0
  5 18  1  0  0  0  0
  5 28  1  0  0  0  0
  6 18  2  0  0  0  0
  6 20  1  0  0  0  0
  7 19  2  0  0  0  0
  7 21  1  0  0  0  0
  8  9  2  0  0  0  0
  8 10  1  0  0  0  0
  8 11  1  0  0  0  0
  9 12  1  0  0  0  0
 10 13  1  0  0  0  0
 11 14  2  0  0  0  0
 11 22  1  0  0  0  0
 12 16  2  0  0  0  0
 12 23  1  0  0  0  0
 13 15  2  0  0  0  0
 14 15  1  0  0  0  0
 14 25  1  0  0  0  0
 15 26  1  0  0  0  0
 16 27  1  0  0  0  0
 18 19  1  0  0  0  0
 19 29  1  0  0  0  0
 20 21  2  0  0  0  0
 20 30  1  0  0  0  0
 21 31  1  0  0  0  0
M  END
> <PUBCHEM_COMPOUND_CID>
24859296

> <PUBCHEM_CONFORMER_RMSD>
0.6

> <PUBCHEM_CONFORMER_DIVERSEORDER>
1
15
24
21
20
9
11
10
8
23
17
12
2
22
16
6
18
19
13
7
4
3
14
5

> <PUBCHEM_MMFF94_PARTIAL_CHARGES>
30
1 -0.19
10 0.31
11 -0.15
12 -0.15
13 0.19
14 -0.15
15 -0.15
16 0.16
17 0.69
18 0.43
19 0.16
2 -0.57
20 0.16
21 0.16
22 0.15
23 0.15
24 0.37
25 0.15
26 0.15
27 0.15
28 0.37
29 0.15
3 -0.55
30 0.15
31 0.15
4 -0.62
5 -0.55
6 -0.62
7 -0.62
9 0.12

> <PUBCHEM_EFFECTIVE_ROTOR_COUNT>
4

> <PUBCHEM_PHARMACOPHORE_FEATURES>
8
1 2 acceptor
1 3 donor
1 4 acceptor
1 5 donor
1 7 acceptor
6 4 8 9 10 12 16 rings
6 6 7 18 19 20 21 rings
6 8 10 11 13 14 15 rings

> <PUBCHEM_HEAVY_ATOM_COUNT>
21

> <PUBCHEM_ATOM_DEF_STEREO_COUNT>
0

> <PUBCHEM_ATOM_UDEF_STEREO_COUNT>
0

> <PUBCHEM_BOND_DEF_STEREO_COUNT>
0

> <PUBCHEM_BOND_UDEF_STEREO_COUNT>
0

> <PUBCHEM_ISOTOPIC_ATOM_COUNT>
0

> <PUBCHEM_COMPONENT_COUNT>
1

> <PUBCHEM_CACTVS_TAUTO_COUNT>
11

> <PUBCHEM_CONFORMER_ID>
017B52A000000001

> <PUBCHEM_MMFF94_ENERGY>
67.9616

> <PUBCHEM_FEATURE_SELFOVERLAP>
40.678

> <PUBCHEM_SHAPE_FINGERPRINT>
10411042 1 18050287270174540963
10595046 47 18336264647783298302
10730089 173 18411419505303752281
11315181 36 18113620113936498708
11578080 2 13756700741302848361
12107183 9 17831574280648989314
12236239 1 17894910724074257368
12390115 104 18128550284084274913
12403259 415 18060412547435054104
12596602 18 17240484744796528056
13167823 11 18408038529172160498
13785724 45 17834392316504979178
14341114 176 18409453591762161508
14508225 48 18125425657006234895
14933364 13 18411704292354375820
15042514 8 18264494065146610851
15183329 4 18410857634046401378
15196674 1 18410575098043872460
15250474 111 18336248112054701362
17844677 252 18338805606217666576
1813 80 16660368047980382070
19489759 90 18342174466341384001
20281389 69 18335137592251042016
20645477 56 18410857646525062765
20645477 70 16916516852608856110
21033648 29 17845640552094217800
21065198 57 18339360868163550450
21236236 1 18413388752626090551
21267235 1 18336552694023152531
21279426 13 18197500628022685414
21315764 268 18408598176079758828
23402539 116 18412821408646734711
23536379 177 18409448072945210874
23559900 14 18342731966176830136
245318 6 16737782694824773492
300161 21 18412258454788657930
3004659 81 18409168780297403898
335352 9 18410855482273210509
34797466 226 17846788433527850836
3545911 37 18411983554963772244
4073 2 18041565840741994226
4214541 1 18410575089380214756
441001 317 18412262830822496257
474 4 17603872229875217844
5104073 3 18407757041231096146
542803 24 18413106165194665524
559249 180 18337668625200423730
59755656 215 18341056220810347606
59755656 520 17095522902908326587
6327066 14 18044648699458480797
633830 44 17749108924502011498
77779 3 18410293631815364942
9965369 4 18336542716671660362
9981440 41 18334301946429534779
9996256 80 18341894099666929607

> <PUBCHEM_SHAPE_MULTIPOLES>
394.12
15.18
2.24
0.59
16.39
0.03
0
-3.92
-0.01
-2.01
0
-0.01
-0.01
0

> <PUBCHEM_SHAPE_SELFOVERLAP>
869.826

> <PUBCHEM_SHAPE_VOLUME>
209.9

> <PUBCHEM_COORDINATE_TYPE>
2
5
10

$$$$
24858859
  -OEChem-05102415023D

 34 36  0     0  0  0  0  0  0999 V2000
   -5.1751    2.6625    0.0002 F   0  0  0  0  0  0  0  0  0  0  0  0
   -3.3401    3.0672    1.0832 F   0  0  0  0  0  0  0  0  0  0  0  0
   -3.3336    3.0451   -1.0912 F   0  0  0  0  0  0  0  0  0  0  0  0
    2.3757   -1.8735   -0.0011 O   0  0  0  0  0  0  0  0  0  0  0  0
    0.5303   -0.4316   -0.0003 N   0  0  0  0  0  0  0  0  0  0  0  0
   -2.6573   -3.1381    0.0008 N   0  0  0  0  0  0  0  0  0  0  0  0
    2.6614    0.4477   -0.0011 N   0  0  0  0  0  0  0  0  0  0  0  0
    4.8463   -0.5150   -0.0005 N   0  0  0  0  0  0  0  0  0  0  0  0
    5.9350    2.0698    0.0013 N   0  0  0  0  0  0  0  0  0  0  0  0
   -1.8827   -0.8563    0.0007 C   0  0  0  0  0  0  0  0  0  0  0  0
   -2.9158   -1.8168    0.0011 C   0  0  0  0  0  0  0  0  0  0  0  0
   -0.5576   -1.3125    0.0000 C   0  0  0  0  0  0  0  0  0  0  0  0
   -2.1888    0.5152    0.0009 C   0  0  0  0  0  0  0  0  0  0  0  0
   -3.5139    0.9411    0.0014 C   0  0  0  0  0  0  0  0  0  0  0  0
   -4.2319   -1.3629    0.0016 C   0  0  0  0  0  0  0  0  0  0  0  0
   -4.5365    0.0006    0.0018 C   0  0  0  0  0  0  0  0  0  0  0  0
   -0.2882   -2.6735   -0.0002 C   0  0  0  0  0  0  0  0  0  0  0  0
   -3.8351    2.3969    0.0005 C   0  0  0  0  0  0  0  0  0  0  0  0
   -1.3648   -3.5371    0.0003 C   0  0  0  0  0  0  0  0  0  0  0  0
    1.9100   -0.7384   -0.0009 C   0  0  0  0  0  0  0  0  0  0  0  0
    4.0695    0.5865   -0.0016 C   0  0  0  0  0  0  0  0  0  0  0  0
    4.6043    1.8560   -0.0006 C   0  0  0  0  0  0  0  0  0  0  0  0
    6.1770   -0.3013    0.0013 C   0  0  0  0  0  0  0  0  0  0  0  0
    6.7118    0.9682    0.0024 C   0  0  0  0  0  0  0  0  0  0  0  0
   -1.4237    1.2852    0.0004 H   0  0  0  0  0  0  0  0  0  0  0  0
   -5.0510   -2.0797    0.0018 H   0  0  0  0  0  0  0  0  0  0  0  0
   -5.5796    0.3045    0.0020 H   0  0  0  0  0  0  0  0  0  0  0  0
    0.6839   -3.1372   -0.0007 H   0  0  0  0  0  0  0  0  0  0  0  0
    0.3244    0.5601   -0.0001 H   0  0  0  0  0  0  0  0  0  0  0  0
   -1.2171   -4.6122    0.0002 H   0  0  0  0  0  0  0  0  0  0  0  0
    2.1377    1.3193   -0.0010 H   0  0  0  0  0  0  0  0  0  0  0  0
    3.9912    2.7500   -0.0008 H   0  0  0  0  0  0  0  0  0  0  0  0
    6.8017   -1.1859    0.0021 H   0  0  0  0  0  0  0  0  0  0  0  0
    7.7812    1.1390    0.0040 H   0  0  0  0  0  0  0  0  0  0  0  0
  1 18  1  0  0  0  0
  2 18  1  0  0  0  0
  3 18  1  0  0  0  0
  4 20  2  0  0  0  0
  5 12  1  0  0  0  0
  5 20  1  0  0  0  0
  5 29  1  0  0  0  0
  6 11  2  0  0  0  0
  6 19  1  0  0  0  0
  7 20  1  0  0  0  0
  7 21  1  0  0  0  0
  7 31  1  0  0  0  0
  8 21  2  0  0  0  0
  8 23  1  0  0  0  0
  9 22  2  0  0  0  0
  9 24  1  0  0  0  0
 10 11  1  0  0  0  0
 10 12  2  0  0  0  0
 10 13  1  0  0  0  0
 11 15  1  0  0  0  0
 12 17  1  0  0  0  0
 13 14  2  0  0  0  0
 13 25  1  0  0  0  0
 14 16  1  0  0  0  0
 14 18  1  0  0  0  0
 15 16  2  0  0  0  0
 15 26  1  0  0  0  0
 16 27  1  0  0  0  0
 17 19  2  0  0  0  0
 17 28  1  0  0  0  0
 19 30  1  0  0  0  0
 21 22  1  0  0  0  0
 22 32  1  0  0  0  0
 23 24  2  0  0  0  0
 23 33  1  0  0  0  0
 24 34  1  0  0  0  0
M  END
> <PUBCHEM_COMPOUND_CID>
24858859

> <PUBCHEM_CONFORMER_RMSD>
0.8

> <PUBCHEM_CONFORMER_DIVERSEORDER>
1
11
20
8
7
6
3
16
19
2
12
15
5
10
14
13
9
18
4
17

> <PUBCHEM_MMFF94_PARTIAL_CHARGES>
33
1 -0.34
11 0.31
12 0.12
13 -0.15
14 -0.14
15 -0.15
16 -0.15
17 -0.15
18 1.16
19 0.16
2 -0.34
20 0.69
21 0.43
22 0.16
23 0.16
24 0.16
25 0.15
26 0.15
27 0.15
28 0.15
29 0.37
3 -0.34
30 0.15
31 0.37
32 0.15
33 0.15
34 0.15
4 -0.57
5 -0.55
6 -0.62
7 -0.55
8 -0.62
9 -0.62

> <PUBCHEM_EFFECTIVE_ROTOR_COUNT>
5

> <PUBCHEM_PHARMACOPHORE_FEATURES>
8
1 4 acceptor
1 5 donor
1 6 acceptor
1 7 donor
1 9 acceptor
6 10 11 13 14 15 16 rings
6 6 10 11 12 17 19 rings
6 8 9 21 22 23 24 rings

> <PUBCHEM_HEAVY_ATOM_COUNT>
24

> <PUBCHEM_ATOM_DEF_STEREO_COUNT>
0

> <PUBCHEM_ATOM_UDEF_STEREO_COUNT>
0

> <PUBCHEM_BOND_DEF_STEREO_COUNT>
0

> <PUBCHEM_BOND_UDEF_STEREO_COUNT>
0

> <PUBCHEM_ISOTOPIC_ATOM_COUNT>
0

> <PUBCHEM_COMPONENT_COUNT>
1

> <PUBCHEM_CACTVS_TAUTO_COUNT>
11

> <PUBCHEM_CONFORMER_ID>
017B50EB00000001

> <PUBCHEM_MMFF94_ENERGY>
71.0437

> <PUBCHEM_FEATURE_SELFOVERLAP>
40.678

> <PUBCHEM_SHAPE_FINGERPRINT>
100830 39 18410011044516432384
10411042 1 17834114526388688039
10595046 47 18263643034529851534
10670039 82 18410285930432633680
11135609 187 18264759971125544437
12107183 9 18191296079955582986
12390115 104 18342471304716864353
12788726 201 18263070184303033803
13073987 5 18335135440978777186
14251757 5 18341613749918994512
14251764 75 18126575509582333505
14347329 18 18341044147208853472
14508225 48 17767390650366672151
14598715 104 17844514699896830552
14739800 52 18267283487390755800
14790565 3 18266743471897906624
15042514 8 18192436496646527547
15183329 4 18410573990279939810
17844677 252 18337961211494594036
20645477 56 18413111679542679811
21033648 29 18272077327669900216
21065198 57 18339360881238551270
21236236 1 18411698798621679965
21279426 13 18270687463763527942
21315763 129 18340205301862991134
21315764 268 18339919432892617684
21756936 100 18342449352970313542
23559900 14 18199746011339892210
245318 6 16521606635645499180
283562 15 18410572895237898403
350125 39 18411702110468752657
4073 2 18042126621916350546
4214541 1 18338516447586550918
441001 317 18411418436036035714
445580 37 18337684113263865636
5104073 3 18187086104939124682
5283173 99 18413108385856359584
531348 171 18131632287906629766
5969126 39 18127685136090076719
6299153 45 18263076627090879818
6327066 14 18262794056766003501
636775 72 18268988873171384904
6700243 42 17480341123468801366
7808743 9 18410007745295285923
9981440 41 18334863805355741899

> <PUBCHEM_SHAPE_MULTIPOLES>
441.31
14.6
3.81
0.65
23.55
0.28
0
9.07
0.01
-5.28
0
-0.23
0.2
0

> <PUBCHEM_SHAPE_SELFOVERLAP>
972.425

> <PUBCHEM_SHAPE_VOLUME>
236.5

> <PUBCHEM_COORDINATE_TYPE>
2
5
10

$$$$
49830698
  -OEChem-05102415023D

 39 41  0     0  0  0  0  0  0999 V2000
    7.3607   -1.0950   -0.0003 F   0  0  0  0  0  0  0  0  0  0  0  0
    5.9406   -2.3345    1.0836 F   0  0  0  0  0  0  0  0  0  0  0  0
    5.9404   -2.3333   -1.0853 F   0  0  0  0  0  0  0  0  0  0  0  0
   -6.6854   -2.1483    0.0000 O   0  0  0  0  0  0  0  0  0  0  0  0
    0.5530    2.3497    0.0001 O   0  0  0  0  0  0  0  0  0  0  0  0
   -0.8131    0.4475   -0.0001 N   0  0  0  0  0  0  0  0  0  0  0  0
   -4.6336    2.1477   -0.0006 N   0  0  0  0  0  0  0  0  0  0  0  0
    1.4792    0.2024    0.0002 N   0  0  0  0  0  0  0  0  0  0  0  0
    3.2826    1.7519    0.0010 N   0  0  0  0  0  0  0  0  0  0  0  0
   -3.2477    0.1764   -0.0001 C   0  0  0  0  0  0  0  0  0  0  0  0
   -2.1047    0.9873   -0.0003 C   0  0  0  0  0  0  0  0  0  0  0  0
   -4.5094    0.8071   -0.0004 C   0  0  0  0  0  0  0  0  0  0  0  0
   -3.1552   -1.2258    0.0005 C   0  0  0  0  0  0  0  0  0  0  0  0
   -5.6446    0.0010   -0.0006 C   0  0  0  0  0  0  0  0  0  0  0  0
   -2.2295    2.3691   -0.0003 C   0  0  0  0  0  0  0  0  0  0  0  0
   -5.5529   -1.3931    0.0000 C   0  0  0  0  0  0  0  0  0  0  0  0
   -4.3069   -2.0076    0.0007 C   0  0  0  0  0  0  0  0  0  0  0  0
   -3.5055    2.8945   -0.0003 C   0  0  0  0  0  0  0  0  0  0  0  0
    0.4248    1.1296    0.0000 C   0  0  0  0  0  0  0  0  0  0  0  0
    2.8696    0.4646    0.0004 C   0  0  0  0  0  0  0  0  0  0  0  0
    5.0942   -0.3769    0.0000 C   0  0  0  0  0  0  0  0  0  0  0  0
    3.7260   -0.6246    0.0000 C   0  0  0  0  0  0  0  0  0  0  0  0
    5.5577    0.9341    0.0005 C   0  0  0  0  0  0  0  0  0  0  0  0
    6.0608   -1.5118   -0.0004 C   0  0  0  0  0  0  0  0  0  0  0  0
    4.6194    1.9536    0.0011 C   0  0  0  0  0  0  0  0  0  0  0  0
   -6.5202   -3.5656    0.0007 C   0  0  0  0  0  0  0  0  0  0  0  0
   -2.2092   -1.7572    0.0009 H   0  0  0  0  0  0  0  0  0  0  0  0
   -6.6302    0.4642   -0.0009 H   0  0  0  0  0  0  0  0  0  0  0  0
   -1.4269    3.0875   -0.0003 H   0  0  0  0  0  0  0  0  0  0  0  0
   -0.7329   -0.5621   -0.0002 H   0  0  0  0  0  0  0  0  0  0  0  0
   -4.1603   -3.0820    0.0013 H   0  0  0  0  0  0  0  0  0  0  0  0
   -3.6666    3.9677   -0.0003 H   0  0  0  0  0  0  0  0  0  0  0  0
    1.2198   -0.7809    0.0000 H   0  0  0  0  0  0  0  0  0  0  0  0
    3.3498   -1.6432   -0.0004 H   0  0  0  0  0  0  0  0  0  0  0  0
    6.6158    1.1713    0.0006 H   0  0  0  0  0  0  0  0  0  0  0  0
    4.9289    2.9936    0.0016 H   0  0  0  0  0  0  0  0  0  0  0  0
   -6.0176   -3.9126   -0.9084 H   0  0  0  0  0  0  0  0  0  0  0  0
   -6.0182   -3.9118    0.9106 H   0  0  0  0  0  0  0  0  0  0  0  0
   -7.5220   -4.0077    0.0006 H   0  0  0  0  0  0  0  0  0  0  0  0
  1 24  1  0  0  0  0
  2 24  1  0  0  0  0
  3 24  1  0  0  0  0
  4 16  1  0  0  0  0
  4 26  1  0  0  0  0
  5 19  2  0  0  0  0
  6 11  1  0  0  0  0
  6 19  1  0  0  0  0
  6 30  1  0  0  0  0
  7 12  2  0  0  0  0
  7 18  1  0  0  0  0
  8 19  1  0  0  0  0
  8 20  1  0  0  0  0
  8 33  1  0  0  0  0
  9 20  2  0  0  0  0
  9 25  1  0  0  0  0
 10 11  2  0  0  0  0
 10 12  1  0  0  0  0
 10 13  1  0  0  0  0
 11 15  1  0  0  0  0
 12 14  1  0  0  0  0
 13 17  2  0  0  0  0
 13 27  1  0  0  0  0
 14 16  2  0  0  0  0
 14 28  1  0  0  0  0
 15 18  2  0  0  0  0
 15 29  1  0  0  0  0
 16 17  1  0  0  0  0
 17 31  1  0  0  0  0
 18 32  1  0  0  0  0
 20 22  1  0  0  0  0
 21 22  2  0  0  0  0
 21 23  1  0  0  0  0
 21 24  1  0  0  0  0
 22 34  1  0  0  0  0
 23 25  2  0  0  0  0
 23 35  1  0  0  0  0
 25 36  1  0  0  0  0
 26 37  1  0  0  0  0
 26 38  1  0  0  0  0
 26 39  1  0  0  0  0
M  END
> <PUBCHEM_COMPOUND_CID>
49830698

> <PUBCHEM_CONFORMER_RMSD>
0.8

> <PUBCHEM_CONFORMER_DIVERSEORDER>
1
17
18
28
13
27
14
29
3
24
16
5
32
23
30
31
2
6
15
21
4
12
26
10
11
25
9
20
22
19
7
8

> <PUBCHEM_MMFF94_PARTIAL_CHARGES>
35
1 -0.34
11 0.12
12 0.31
13 -0.15
14 -0.15
15 -0.15
16 0.08
17 -0.15
18 0.16
19 0.69
2 -0.34
20 0.43
21 -0.14
22 -0.15
23 -0.15
24 1.16
25 0.16
26 0.28
27 0.15
28 0.15
29 0.15
3 -0.34
30 0.37
31 0.15
32 0.15
33 0.37
34 0.15
35 0.15
36 0.15
4 -0.36
5 -0.57
6 -0.55
7 -0.62
8 -0.55
9 -0.62

> <PUBCHEM_EFFECTIVE_ROTOR_COUNT>
6

> <PUBCHEM_PHARMACOPHORE_FEATURES>
8
1 4 acceptor
1 5 acceptor
1 6 donor
1 7 acceptor
1 8 donor
6 10 12 13 14 16 17 rings
6 7 10 11 12 15 18 rings
6 9 20 21 22 23 25 rings

> <PUBCHEM_HEAVY_ATOM_COUNT>
26

> <PUBCHEM_ATOM_DEF_STEREO_COUNT>
0

> <PUBCHEM_ATOM_UDEF_STEREO_COUNT>
0

> <PUBCHEM_BOND_DEF_STEREO_COUNT>
0

> <PUBCHEM_BOND_UDEF_STEREO_COUNT>
0

> <PUBCHEM_ISOTOPIC_ATOM_COUNT>
0

> <PUBCHEM_COMPONENT_COUNT>
1

> <PUBCHEM_CACTVS_TAUTO_COUNT>
11

> <PUBCHEM_CONFORMER_ID>
02F85B2A00000001

> <PUBCHEM_MMFF94_ENERGY>
84.2434

> <PUBCHEM_FEATURE_SELFOVERLAP>
40.678

> <PUBCHEM_SHAPE_FINGERPRINT>
10319926 262 18270950259294556776
10411042 1 18266459987984238179
10595046 47 18335986453887886412
11315181 36 18409168796754943889
11524674 6 16774079587854135935
11991303 11 14634878573303255410
12107183 9 17760081822228420456
12166972 35 18113903783594499508
12236239 1 18260268546616907036
12760667 363 18337111267726821675
13073987 5 18342455963094196304
13167823 11 18409727357277785624
13248334 5 17618222154579565585
13288520 33 18410856560341656445
13533116 47 18336829813534071668
1361 4 18338799021716595986
13782708 43 18131630105920272375
13911987 19 14273456976845611849
14211702 104 18411989065280634814
14347332 77 18409728465231596525
14461889 52 18339635763582959616
14556957 393 15502383274657491918
14931854 50 17822559608547402411
15152005 304 18121231037100726963
15183329 4 18260546697695060818
15196674 1 18410573985426147488
15250474 111 18188479181903098586
15419008 42 17840583700191046988
17492 89 18338234985289286669
17844677 252 18411706478187138168
18335252 98 18339363084245583416
19958102 18 17967807267107253599
20028762 73 18412543189767755466
21130935 74 18343866631948211722
21197605 99 18342459283447028430
21236236 1 18411700976571019089
21267235 1 18410298012027853161
21623969 137 17561367257971523006
23081809 10 17822298955249914932
23522609 53 18121251802655251061
23559900 14 18339633551522275513
3004659 81 18259983773632463448
335352 9 18410571813243431829
3383291 50 18260829353814801779
397830 11 18130773591142551416
4073 2 18114187471132897712
4214541 1 18410856525370319621
439807 62 18411419535774510491
465052 167 18201722856011075204
497634 4 18334576832720639461
5104073 3 18202282502528562968
531348 171 17751070315316614373
559249 180 18409728426988366957
5718773 13 18340766061388970455
7495541 125 17846775239193301176
7970288 3 18122623014567916463
9996256 80 18410575080436715994
999808 66 18041008384004336907

> <PUBCHEM_SHAPE_MULTIPOLES>
481.58
20.33
3.39
0.65
12.83
0.73
0
15.43
0
-3.25
0
0.33
0.15
0

> <PUBCHEM_SHAPE_SELFOVERLAP>
1055.88

> <PUBCHEM_SHAPE_VOLUME>
260.3

> <PUBCHEM_COORDINATE_TYPE>
2
5
10

$$$$
49830703
  -OEChem-05102415023D

 38 40  0     0  0  0  0  0  0999 V2000
   -7.3938    0.2668   -0.0034 F   0  0  0  0  0  0  0  0  0  0  0  0
   -6.3753   -1.3198   -1.0866 F   0  0  0  0  0  0  0  0  0  0  0  0
   -6.3780   -1.3199    1.0821 F   0  0  0  0  0  0  0  0  0  0  0  0
    7.4673   -1.2052   -0.0001 F   0  0  0  0  0  0  0  0  0  0  0  0
    5.7998   -2.0834    1.0841 F   0  0  0  0  0  0  0  0  0  0  0  0
    5.8004   -2.0842   -1.0847 F   0  0  0  0  0  0  0  0  0  0  0  0
    1.4738   -1.0184    0.0009 O   0  0  0  0  0  0  0  0  0  0  0  0
   -0.1755    0.6443    0.0020 N   0  0  0  0  0  0  0  0  0  0  0  0
   -3.6797   -1.6379    0.0007 N   0  0  0  0  0  0  0  0  0  0  0  0
    2.0494    1.2483    0.0004 N   0  0  0  0  0  0  0  0  0  0  0  0
    4.0752    0.0032   -0.0009 N   0  0  0  0  0  0  0  0  0  0  0  0
   -2.6223    0.5277    0.0019 C   0  0  0  0  0  0  0  0  0  0  0  0
   -3.7687   -0.2943    0.0008 C   0  0  0  0  0  0  0  0  0  0  0  0
   -1.3657   -0.0927    0.0029 C   0  0  0  0  0  0  0  0  0  0  0  0
   -5.0168    0.3225   -0.0003 C   0  0  0  0  0  0  0  0  0  0  0  0
   -2.7524    1.9269    0.0019 C   0  0  0  0  0  0  0  0  0  0  0  0
   -5.1464    1.7135   -0.0002 C   0  0  0  0  0  0  0  0  0  0  0  0
   -1.2707   -1.4768    0.0028 C   0  0  0  0  0  0  0  0  0  0  0  0
   -4.0130    2.5170    0.0009 C   0  0  0  0  0  0  0  0  0  0  0  0
   -6.2678   -0.5006   -0.0020 C   0  0  0  0  0  0  0  0  0  0  0  0
   -2.4480   -2.1972    0.0017 C   0  0  0  0  0  0  0  0  0  0  0  0
    1.1546    0.1662    0.0010 C   0  0  0  0  0  0  0  0  0  0  0  0
    3.4637    1.2088   -0.0005 C   0  0  0  0  0  0  0  0  0  0  0  0
    5.4271    0.0155   -0.0014 C   0  0  0  0  0  0  0  0  0  0  0  0
    4.1368    2.4199   -0.0006 C   0  0  0  0  0  0  0  0  0  0  0  0
    6.1920    1.1708   -0.0016 C   0  0  0  0  0  0  0  0  0  0  0  0
    5.5269    2.3919   -0.0011 C   0  0  0  0  0  0  0  0  0  0  0  0
    6.1071   -1.3128   -0.0005 C   0  0  0  0  0  0  0  0  0  0  0  0
   -1.9031    2.6020    0.0028 H   0  0  0  0  0  0  0  0  0  0  0  0
   -6.1223    2.1910   -0.0010 H   0  0  0  0  0  0  0  0  0  0  0  0
   -0.3648   -2.0594    0.0036 H   0  0  0  0  0  0  0  0  0  0  0  0
   -4.1102    3.5985    0.0009 H   0  0  0  0  0  0  0  0  0  0  0  0
   -0.2558    1.6539    0.0016 H   0  0  0  0  0  0  0  0  0  0  0  0
   -2.4376   -3.2824    0.0016 H   0  0  0  0  0  0  0  0  0  0  0  0
    1.6381    2.1783    0.0008 H   0  0  0  0  0  0  0  0  0  0  0  0
    3.6128    3.3702   -0.0001 H   0  0  0  0  0  0  0  0  0  0  0  0
    7.2762    1.1481   -0.0018 H   0  0  0  0  0  0  0  0  0  0  0  0
    6.0908    3.3198   -0.0012 H   0  0  0  0  0  0  0  0  0  0  0  0
  1 20  1  0  0  0  0
  2 20  1  0  0  0  0
  3 20  1  0  0  0  0
  4 28  1  0  0  0  0
  5 28  1  0  0  0  0
  6 28  1  0  0  0  0
  7 22  2  0  0  0  0
  8 14  1  0  0  0  0
  8 22  1  0  0  0  0
  8 33  1  0  0  0  0
  9 13  2  0  0  0  0
  9 21  1  0  0  0  0
 10 22  1  0  0  0  0
 10 23  1  0  0  0  0
 10 35  1  0  0  0  0
 11 23  1  0  0  0  0
 11 24  2  0  0  0  0
 12 13  1  0  0  0  0
 12 14  2  0  0  0  0
 12 16  1  0  0  0  0
 13 15  1  0  0  0  0
 14 18  1  0  0  0  0
 15 17  2  0  0  0  0
 15 20  1  0  0  0  0
 16 19  2  0  0  0  0
 16 29  1  0  0  0  0
 17 19  1  0  0  0  0
 17 30  1  0  0  0  0
 18 21  2  0  0  0  0
 18 31  1  0  0  0  0
 19 32  1  0  0  0  0
 21 34  1  0  0  0  0
 23 25  2  0  0  0  0
 24 26  1  0  0  0  0
 24 28  1  0  0  0  0
 25 27  1  0  0  0  0
 25 36  1  0  0  0  0
 26 27  2  0  0  0  0
 26 37  1  0  0  0  0
 27 38  1  0  0  0  0
M  END
> <PUBCHEM_COMPOUND_CID>
49830703

> <PUBCHEM_CONFORMER_RMSD>
0.8

> <PUBCHEM_CONFORMER_DIVERSEORDER>
1
24
7
9
8
14
10
17
16
6
11
4
23
5
15
18
12
13
19
3
21
2
20
22

> <PUBCHEM_MMFF94_PARTIAL_CHARGES>
37
1 -0.34
10 -0.55
11 -0.62
13 0.31
14 0.12
15 -0.14
16 -0.15
17 -0.15
18 -0.15
19 -0.15
2 -0.34
20 1.16
21 0.16
22 0.69
23 0.43
24 0.17
25 -0.15
26 -0.15
27 -0.15
28 1.16
29 0.15
3 -0.34
30 0.15
31 0.15
32 0.15
33 0.37
34 0.15
35 0.37
36 0.15
37 0.15
38 0.15
4 -0.34
5 -0.34
6 -0.34
7 -0.57
8 -0.55
9 -0.62

> <PUBCHEM_EFFECTIVE_ROTOR_COUNT>
6

> <PUBCHEM_PHARMACOPHORE_FEATURES>
8
1 10 donor
1 11 acceptor
1 7 acceptor
1 8 donor
1 9 acceptor
6 11 23 24 25 26 27 rings
6 12 13 15 16 17 19 rings
6 9 12 13 14 18 21 rings

> <PUBCHEM_HEAVY_ATOM_COUNT>
28

> <PUBCHEM_ATOM_DEF_STEREO_COUNT>
0

> <PUBCHEM_ATOM_UDEF_STEREO_COUNT>
0

> <PUBCHEM_BOND_DEF_STEREO_COUNT>
0

> <PUBCHEM_BOND_UDEF_STEREO_COUNT>
0

> <PUBCHEM_ISOTOPIC_ATOM_COUNT>
0

> <PUBCHEM_COMPONENT_COUNT>
1

> <PUBCHEM_CACTVS_TAUTO_COUNT>
11

> <PUBCHEM_CONFORMER_ID>
02F85B2F00000001

> <PUBCHEM_MMFF94_ENERGY>
73.4004

> <PUBCHEM_FEATURE_SELFOVERLAP>
40.681

> <PUBCHEM_SHAPE_FINGERPRINT>
10411042 1 17906172112284762491
10595046 47 18338234993958277700
11315181 36 18040720285918873773
11524674 6 16630526258699186471
11719270 70 17846499214614465950
12107183 9 18121215373274591392
12166972 35 18408888451154555228
12236239 1 18187082858096724985
13073987 5 18411699885581111552
13533116 47 18342738533619409088
13782708 43 17988922318698331151
14251764 18 18410011044500224900
14341114 176 18408325514111896404
14933364 13 18409731772456907500
15183329 4 18411703179746661298
15419008 42 17841993282698469852
1577012 14 18342462529830296408
17844677 252 18410580578475311960
19611394 137 17970080022814930483
19958102 18 18261386750068819719
20281389 69 18408322193938691737
21130935 74 18273216412762493651
21236236 1 18412826885236809201
21267235 1 18408890632902112673
21279426 13 18339360764926443828
21315763 129 18412545379715338196
21315763 28 18411135831451433570
21315764 268 18409443713216659332
23522609 53 17986138368211121009
23559900 14 18268704081967757441
23569943 247 17387402438088715530
3004659 81 18408887322431821792
335352 9 18410575088984433388
34797466 226 17846789541592665348
350125 39 18411136944043096673
3545911 37 18410575106259553029
4073 2 18042127721063585186
4197921 191 18335706061290484964
4214541 1 18410573985536910784
5104073 3 18411981364857766048
559249 180 18411134697458618242
59755656 215 18261111850697815594
59755656 520 17458622346084808531
9965369 4 18410291384977913049
9996256 80 18412824689959511509

> <PUBCHEM_SHAPE_MULTIPOLES>
506.79
21.14
2.59
0.7
8.25
0.36
0
-2.9
-0.02
1.37
0
-0.04
-0.19
0

> <PUBCHEM_SHAPE_SELFOVERLAP>
1118.772

> <PUBCHEM_SHAPE_VOLUME>
271.3

> <PUBCHEM_COORDINATE_TYPE>
2
5
10

$$$$
49830701
  -OEChem-05102415023D

 35 37  0     0  0  0  0  0  0999 V2000
   -7.2358    0.9917   -0.0007 Cl  0  0  0  0  0  0  0  0  0  0  0  0
    6.7150    1.0348   -0.0024 F   0  0  0  0  0  0  0  0  0  0  0  0
    5.0820    1.9773   -1.0853 F   0  0  0  0  0  0  0  0  0  0  0  0
    5.0843    1.9779    1.0835 F   0  0  0  0  0  0  0  0  0  0  0  0
    0.7187    1.0815    0.0011 O   0  0  0  0  0  0  0  0  0  0  0  0
   -0.9941   -0.5157    0.0010 N   0  0  0  0  0  0  0  0  0  0  0  0
   -4.4070    1.9007    0.0004 N   0  0  0  0  0  0  0  0  0  0  0  0
    1.2056   -1.2059    0.0009 N   0  0  0  0  0  0  0  0  0  0  0  0
    3.2784   -0.0405    0.0009 N   0  0  0  0  0  0  0  0  0  0  0  0
   -3.4344   -0.3042    0.0002 C   0  0  0  0  0  0  0  0  0  0  0  0
   -2.1547    0.2669    0.0010 C   0  0  0  0  0  0  0  0  0  0  0  0
   -4.5481    0.5618   -0.0001 C   0  0  0  0  0  0  0  0  0  0  0  0
   -3.6188   -1.6972   -0.0003 C   0  0  0  0  0  0  0  0  0  0  0  0
   -2.0061    1.6463    0.0011 C   0  0  0  0  0  0  0  0  0  0  0  0
   -5.8192   -0.0060   -0.0009 C   0  0  0  0  0  0  0  0  0  0  0  0
   -4.9015   -2.2379   -0.0012 C   0  0  0  0  0  0  0  0  0  0  0  0
   -6.0028   -1.3909   -0.0015 C   0  0  0  0  0  0  0  0  0  0  0  0
   -3.1545    2.4120    0.0006 C   0  0  0  0  0  0  0  0  0  0  0  0
    0.3536   -0.0897    0.0010 C   0  0  0  0  0  0  0  0  0  0  0  0
    2.6204   -1.2215    0.0009 C   0  0  0  0  0  0  0  0  0  0  0  0
    4.6287   -0.1055    0.0004 C   0  0  0  0  0  0  0  0  0  0  0  0
    3.2458   -2.4579    0.0003 C   0  0  0  0  0  0  0  0  0  0  0  0
    5.3481   -1.2896    0.0001 C   0  0  0  0  0  0  0  0  0  0  0  0
    4.6360   -2.4839   -0.0001 C   0  0  0  0  0  0  0  0  0  0  0  0
    5.3600    1.1954   -0.0010 C   0  0  0  0  0  0  0  0  0  0  0  0
   -2.7964   -2.4048    0.0000 H   0  0  0  0  0  0  0  0  0  0  0  0
   -1.1135   -1.5215    0.0009 H   0  0  0  0  0  0  0  0  0  0  0  0
   -1.0782    2.1933    0.0015 H   0  0  0  0  0  0  0  0  0  0  0  0
   -5.0407   -3.3147   -0.0017 H   0  0  0  0  0  0  0  0  0  0  0  0
   -7.0009   -1.8217   -0.0021 H   0  0  0  0  0  0  0  0  0  0  0  0
   -3.1020    3.4959    0.0007 H   0  0  0  0  0  0  0  0  0  0  0  0
    0.7584   -2.1192    0.0008 H   0  0  0  0  0  0  0  0  0  0  0  0
    2.6853   -3.3871    0.0002 H   0  0  0  0  0  0  0  0  0  0  0  0
    6.4324   -1.3092   -0.0005 H   0  0  0  0  0  0  0  0  0  0  0  0
    5.1634   -3.4331   -0.0006 H   0  0  0  0  0  0  0  0  0  0  0  0
  1 15  1  0  0  0  0
  2 25  1  0  0  0  0
  3 25  1  0  0  0  0
  4 25  1  0  0  0  0
  5 19  2  0  0  0  0
  6 11  1  0  0  0  0
  6 19  1  0  0  0  0
  6 27  1  0  0  0  0
  7 12  2  0  0  0  0
  7 18  1  0  0  0  0
  8 19  1  0  0  0  0
  8 20  1  0  0  0  0
  8 32  1  0  0  0  0
  9 20  1  0  0  0  0
  9 21  2  0  0  0  0
 10 11  2  0  0  0  0
 10 12  1  0  0  0  0
 10 13  1  0  0  0  0
 11 14  1  0  0  0  0
 12 15  1  0  0  0  0
 13 16  2  0  0  0  0
 13 26  1  0  0  0  0
 14 18  2  0  0  0  0
 14 28  1  0  0  0  0
 15 17  2  0  0  0  0
 16 17  1  0  0  0  0
 16 29  1  0  0  0  0
 17 30  1  0  0  0  0
 18 31  1  0  0  0  0
 20 22  2  0  0  0  0
 21 23  1  0  0  0  0
 21 25  1  0  0  0  0
 22 24  1  0  0  0  0
 22 33  1  0  0  0  0
 23 24  2  0  0  0  0
 23 34  1  0  0  0  0
 24 35  1  0  0  0  0
M  END
> <PUBCHEM_COMPOUND_CID>
49830701

> <PUBCHEM_CONFORMER_RMSD>
0.8

> <PUBCHEM_CONFORMER_DIVERSEORDER>
1
21
15
5
18
16
13
11
24
4
8
9
7
10
6
17
3
12
23
2
14
22
19
20

> <PUBCHEM_MMFF94_PARTIAL_CHARGES>
34
1 -0.18
11 0.12
12 0.31
13 -0.15
14 -0.15
15 0.18
16 -0.15
17 -0.15
18 0.16
19 0.69
2 -0.34
20 0.43
21 0.17
22 -0.15
23 -0.15
24 -0.15
25 1.16
26 0.15
27 0.37
28 0.15
29 0.15
3 -0.34
30 0.15
31 0.15
32 0.37
33 0.15
34 0.15
35 0.15
4 -0.34
5 -0.57
6 -0.55
7 -0.62
8 -0.55
9 -0.62

> <PUBCHEM_EFFECTIVE_ROTOR_COUNT>
5

> <PUBCHEM_PHARMACOPHORE_FEATURES>
8
1 5 acceptor
1 6 donor
1 7 acceptor
1 8 donor
1 9 acceptor
6 10 12 13 15 16 17 rings
6 7 10 11 12 14 18 rings
6 9 20 21 22 23 24 rings

> <PUBCHEM_HEAVY_ATOM_COUNT>
25

> <PUBCHEM_ATOM_DEF_STEREO_COUNT>
0

> <PUBCHEM_ATOM_UDEF_STEREO_COUNT>
0

> <PUBCHEM_BOND_DEF_STEREO_COUNT>
0

> <PUBCHEM_BOND_UDEF_STEREO_COUNT>
0

> <PUBCHEM_ISOTOPIC_ATOM_COUNT>
0

> <PUBCHEM_COMPONENT_COUNT>
1

> <PUBCHEM_CACTVS_TAUTO_COUNT>
11

> <PUBCHEM_CONFORMER_ID>
02F85B2D00000001

> <PUBCHEM_MMFF94_ENERGY>
70.9375

> <PUBCHEM_FEATURE_SELFOVERLAP>
40.681

> <PUBCHEM_SHAPE_FINGERPRINT>
10595046 47 18410012126178011674
10835480 77 18409722942141323229
10968037 39 18410011048942839831
11315181 36 18060702797631109595
11524674 6 16559028290637261231
12107183 9 17617094711597101354
12236239 1 18260548918277392607
12516196 113 18273494585220252249
12616971 3 17917699181082289270
13073987 5 18410856533875267209
13167823 11 18410290268313172902
13533116 47 18410855430491009586
14251732 16 18411136965180206027
14341114 176 18410578366318786463
14461889 52 18337105769815398370
14528608 73 18410578388099669150
14904525 67 15913609466772517387
14933364 13 18412546504753656776
15183329 4 18411702058385754755
15196674 1 18410573955107824546
15927050 60 17479452787041135564
15961568 22 18187087269498007396
16110190 28 18342179960269408207
17834072 33 18410575071941902230
17844677 252 18339649931999287498
17857418 61 18410293614377065463
18335252 98 18409172138371219811
20511986 3 18187071850396329775
21236236 1 18341050727573192075
21267235 1 18339086990509616015
21315763 129 18336544907247275916
23522609 53 18058193711680670689
23559900 14 18340197588149635729
239999 70 18271811164626613670
245318 6 17098920535978744772
3004659 81 18335984173476315690
3246875 12 18268706302592190256
329604 57 18201720639280650704
335352 9 18411134715899322429
34797466 226 17846223254259393684
350125 39 18412544327622345889
4073 2 18114468932613328978
4214541 1 18338797806330002307
4325135 7 18409449193620523220
497634 4 18410857616645324045
5104073 3 18411136892234432042
513532 50 18342189847695269438
5312625 73 18342174501043935954
67856867 119 18261678198191979629
7495541 125 17917704704151684522

> <PUBCHEM_SHAPE_MULTIPOLES>
468.74
18.98
2.65
0.65
2.93
0.18
0
-1.43
0.01
0.89
0
0.26
-0.12
0

> <PUBCHEM_SHAPE_SELFOVERLAP>
1022.237

> <PUBCHEM_SHAPE_VOLUME>
256.5

> <PUBCHEM_COORDINATE_TYPE>
2
5
10

$$$$
24772168
  -OEChem-05102415023D

 31 33  0     0  0  0  0  0  0999 V2000
    1.2572   -1.6379   -0.0011 O   0  0  0  0  0  0  0  0  0  0  0  0
   -0.2191    0.1801   -0.0011 N   0  0  0  0  0  0  0  0  0  0  0  0
   -3.9320   -1.7440    0.0009 N   0  0  0  0  0  0  0  0  0  0  0  0
    2.0546    0.5606   -0.0017 N   0  0  0  0  0  0  0  0  0  0  0  0
    3.9689   -0.8662   -0.0001 N   0  0  0  0  0  0  0  0  0  0  0  0
    5.6080    1.4098    0.0012 N   0  0  0  0  0  0  0  0  0  0  0  0
   -2.6656    0.3063   -0.0002 C   0  0  0  0  0  0  0  0  0  0  0  0
   -1.4766   -0.4354   -0.0008 C   0  0  0  0  0  0  0  0  0  0  0  0
   -3.8877   -0.3982    0.0008 C   0  0  0  0  0  0  0  0  0  0  0  0
   -2.6565    1.7115   -0.0005 C   0  0  0  0  0  0  0  0  0  0  0  0
   -1.5189   -1.8222   -0.0006 C   0  0  0  0  0  0  0  0  0  0  0  0
   -5.0686    0.3389    0.0013 C   0  0  0  0  0  0  0  0  0  0  0  0
   -3.8525    2.4235    0.0002 C   0  0  0  0  0  0  0  0  0  0  0  0
   -5.0599    1.7360    0.0011 C   0  0  0  0  0  0  0  0  0  0  0  0
   -2.7617   -2.4225    0.0003 C   0  0  0  0  0  0  0  0  0  0  0  0
    1.0569   -0.4274   -0.0013 C   0  0  0  0  0  0  0  0  0  0  0  0
    3.4581    0.3811   -0.0019 C   0  0  0  0  0  0  0  0  0  0  0  0
    4.2632    1.4990   -0.0011 C   0  0  0  0  0  0  0  0  0  0  0  0
    5.3137   -0.9554    0.0019 C   0  0  0  0  0  0  0  0  0  0  0  0
    6.1188    0.1624    0.0027 C   0  0  0  0  0  0  0  0  0  0  0  0
   -1.7446    2.2991   -0.0013 H   0  0  0  0  0  0  0  0  0  0  0  0
   -0.6752   -2.4917   -0.0011 H   0  0  0  0  0  0  0  0  0  0  0  0
   -0.1990    1.1927   -0.0011 H   0  0  0  0  0  0  0  0  0  0  0  0
   -6.0277   -0.1759    0.0020 H   0  0  0  0  0  0  0  0  0  0  0  0
   -3.8426    3.5092   -0.0001 H   0  0  0  0  0  0  0  0  0  0  0  0
   -2.8587   -3.5034    0.0005 H   0  0  0  0  0  0  0  0  0  0  0  0
   -5.9979    2.2835    0.0016 H   0  0  0  0  0  0  0  0  0  0  0  0
    1.7389    1.5273   -0.0020 H   0  0  0  0  0  0  0  0  0  0  0  0
    3.8655    2.5074   -0.0017 H   0  0  0  0  0  0  0  0  0  0  0  0
    5.7249   -1.9573    0.0032 H   0  0  0  0  0  0  0  0  0  0  0  0
    7.1993    0.0898    0.0045 H   0  0  0  0  0  0  0  0  0  0  0  0
  1 16  2  0  0  0  0
  2  8  1  0  0  0  0
  2 16  1  0  0  0  0
  2 23  1  0  0  0  0
  3  9  1  0  0  0  0
  3 15  2  0  0  0  0
  4 16  1  0  0  0  0
  4 17  1  0  0  0  0
  4 28  1  0  0  0  0
  5 17  2  0  0  0  0
  5 19  1  0  0  0  0
  6 18  2  0  0  0  0
  6 20  1  0  0  0  0
  7  8  1  0  0  0  0
  7  9  1  0  0  0  0
  7 10  2  0  0  0  0
  8 11  2  0  0  0  0
  9 12  2  0  0  0  0
 10 13  1  0  0  0  0
 10 21  1  0  0  0  0
 11 15  1  0  0  0  0
 11 22  1  0  0  0  0
 12 14  1  0  0  0  0
 12 24  1  0  0  0  0
 13 14  2  0  0  0  0
 13 25  1  0  0  0  0
 14 27  1  0  0  0  0
 15 26  1  0  0  0  0
 17 18  1  0  0  0  0
 18 29  1  0  0  0  0
 19 20  2  0  0  0  0
 19 30  1  0  0  0  0
 20 31  1  0  0  0  0
M  END
> <PUBCHEM_COMPOUND_CID>
24772168

> <PUBCHEM_CONFORMER_RMSD>
0.6

> <PUBCHEM_CONFORMER_DIVERSEORDER>
1
24
15
21
10
17
12
9
22
11
18
5
16
23
2
14
7
8
3
20
19
4
13
6

> <PUBCHEM_MMFF94_PARTIAL_CHARGES>
30
1 -0.57
10 -0.15
11 -0.15
12 -0.15
13 -0.15
14 -0.15
15 0.16
16 0.69
17 0.43
18 0.16
19 0.16
2 -0.55
20 0.16
21 0.15
22 0.15
23 0.37
24 0.15
25 0.15
26 0.15
27 0.15
28 0.37
29 0.15
3 -0.62
30 0.15
31 0.15
4 -0.55
5 -0.62
6 -0.62
8 0.12
9 0.31

> <PUBCHEM_EFFECTIVE_ROTOR_COUNT>
4

> <PUBCHEM_PHARMACOPHORE_FEATURES>
8
1 1 acceptor
1 2 donor
1 3 acceptor
1 4 donor
1 6 acceptor
6 3 7 8 9 11 15 rings
6 5 6 17 18 19 20 rings
6 7 9 10 12 13 14 rings

> <PUBCHEM_HEAVY_ATOM_COUNT>
20

> <PUBCHEM_ATOM_DEF_STEREO_COUNT>
0

> <PUBCHEM_ATOM_UDEF_STEREO_COUNT>
0

> <PUBCHEM_BOND_DEF_STEREO_COUNT>
0

> <PUBCHEM_BOND_UDEF_STEREO_COUNT>
0

> <PUBCHEM_ISOTOPIC_ATOM_COUNT>
0

> <PUBCHEM_COMPONENT_COUNT>
1

> <PUBCHEM_CACTVS_TAUTO_COUNT>
11

> <PUBCHEM_CONFORMER_ID>
0179FE4800000001

> <PUBCHEM_MMFF94_ENERGY>
68.0202

> <PUBCHEM_FEATURE_SELFOVERLAP>
40.678

> <PUBCHEM_SHAPE_FINGERPRINT>
10014705 185 18409167709943153385
10411042 1 17978229684726586595
10595046 47 18335983181327982958
11315181 36 18113617927776942108
11405975 8 18408318891651757642
11595378 159 17023453158313121404
12107183 9 17903349308709457082
12236239 1 17966969426229545938
12390115 104 18200608982018455721
12403259 415 18060414759358977320
12616971 3 16950285130808776092
13073987 5 18334855043775055282
13167823 11 18408038533345821482
13785724 45 17834110845791567834
14341114 176 18409735062322605044
14508225 48 18125424557573728391
15042514 8 18264775544455277027
15183329 4 18410856525855109730
15196674 1 18410575097922520676
15250474 111 18336249211455552858
15501527 16 18411984641791094761
17844677 252 18338524139704270472
1813 80 16660368047874900014
19489759 90 18342455945729093505
20281389 69 18334011683453642848
20645477 56 18410013208884128237
20645477 70 16916798327506413022
21033648 29 17845922022607182096
21065198 57 18411699932746052202
21236236 1 18413388757031866631
21267235 1 18336552715550944403
21279426 13 18341052896241714902
23402539 116 18413384350015457173
23536379 177 18408885127276207362
23559900 14 18343577469228103952
245318 6 16593666420043083460
300161 21 18412539921085704762
3004659 81 18409169875498298554
34797466 226 17775013426773492420
3545911 37 18411983541920699245
4073 2 18113904905419454506
4214541 1 18410573989673434148
441001 317 18412544310252403769
5104073 3 18408038520376180042
5283173 99 18413107238694325448
542803 24 18410291415358987164
559249 180 18410007702699527850
59755656 215 18341619153557441566
59755656 520 17022904549154944146
6327066 14 18117551835139026189
633830 44 17749110023892319986
77779 3 18410293635983725198
90127 26 18335149704274705034
9965369 4 18336542716597826834
9981440 41 18334862705965478875

> <PUBCHEM_SHAPE_MULTIPOLES>
380.82
14.43
2.3
0.59
15.47
0.14
0
-4.46
-0.01
-2.38
0
-0.04
-0.01
0

> <PUBCHEM_SHAPE_SELFOVERLAP>
838.163

> <PUBCHEM_SHAPE_VOLUME>
201.8

> <PUBCHEM_COORDINATE_TYPE>
2
5
10

$$$$
49830684
  -OEChem-05102415023D

 39 41  0     0  0  0  0  0  0999 V2000
    7.0902   -0.5910    0.0015 F   0  0  0  0  0  0  0  0  0  0  0  0
    5.5564   -1.6874    1.0846 F   0  0  0  0  0  0  0  0  0  0  0  0
    5.5582   -1.6874   -1.0842 F   0  0  0  0  0  0  0  0  0  0  0  0
   -7.1056    0.9864    0.0005 O   0  0  0  0  0  0  0  0  0  0  0  0
    1.1265   -1.2178   -0.0007 O   0  0  0  0  0  0  0  0  0  0  0  0
   -0.7327    0.2061    0.0000 N   0  0  0  0  0  0  0  0  0  0  0  0
   -3.8955   -2.5295    0.0000 N   0  0  0  0  0  0  0  0  0  0  0  0
    1.3898    1.1059   -0.0003 N   0  0  0  0  0  0  0  0  0  0  0  0
    3.5656    0.1467   -0.0008 N   0  0  0  0  0  0  0  0  0  0  0  0
   -3.1413   -0.2408    0.0000 C   0  0  0  0  0  0  0  0  0  0  0  0
   -1.8121   -0.6852    0.0001 C   0  0  0  0  0  0  0  0  0  0  0  0
   -4.1657   -1.2105    0.0002 C   0  0  0  0  0  0  0  0  0  0  0  0
   -3.4596    1.1279   -0.0002 C   0  0  0  0  0  0  0  0  0  0  0  0
   -5.4859   -0.7684    0.0005 C   0  0  0  0  0  0  0  0  0  0  0  0
   -1.5305   -2.0437   -0.0003 C   0  0  0  0  0  0  0  0  0  0  0  0
   -5.8026    0.5922    0.0003 C   0  0  0  0  0  0  0  0  0  0  0  0
   -4.7886    1.5418   -0.0003 C   0  0  0  0  0  0  0  0  0  0  0  0
   -2.5993   -2.9168   -0.0004 C   0  0  0  0  0  0  0  0  0  0  0  0
    0.6498   -0.0873   -0.0003 C   0  0  0  0  0  0  0  0  0  0  0  0
    2.7965    1.2584   -0.0005 C   0  0  0  0  0  0  0  0  0  0  0  0
    4.9034    0.3420   -0.0005 C   0  0  0  0  0  0  0  0  0  0  0  0
    3.2993    2.5495    0.0002 C   0  0  0  0  0  0  0  0  0  0  0  0
    5.5048    1.5903   -0.0001 C   0  0  0  0  0  0  0  0  0  0  0  0
    4.6804    2.7100    0.0003 C   0  0  0  0  0  0  0  0  0  0  0  0
    5.7571   -0.8820    0.0003 C   0  0  0  0  0  0  0  0  0  0  0  0
   -7.3588    2.3906    0.0001 C   0  0  0  0  0  0  0  0  0  0  0  0
   -2.7085    1.9109   -0.0005 H   0  0  0  0  0  0  0  0  0  0  0  0
   -6.2947   -1.4978    0.0008 H   0  0  0  0  0  0  0  0  0  0  0  0
   -0.5541   -2.4983   -0.0005 H   0  0  0  0  0  0  0  0  0  0  0  0
   -0.9489    1.1956    0.0003 H   0  0  0  0  0  0  0  0  0  0  0  0
   -4.9601    2.6126   -0.0006 H   0  0  0  0  0  0  0  0  0  0  0  0
   -2.4420   -3.9906   -0.0007 H   0  0  0  0  0  0  0  0  0  0  0  0
    0.8564    1.9717    0.0000 H   0  0  0  0  0  0  0  0  0  0  0  0
    2.6514    3.4201    0.0005 H   0  0  0  0  0  0  0  0  0  0  0  0
    6.5821    1.7147    0.0002 H   0  0  0  0  0  0  0  0  0  0  0  0
    5.1134    3.7058    0.0008 H   0  0  0  0  0  0  0  0  0  0  0  0
   -6.9784    2.8684    0.9093 H   0  0  0  0  0  0  0  0  0  0  0  0
   -6.9788    2.8678   -0.9097 H   0  0  0  0  0  0  0  0  0  0  0  0
   -8.4457    2.5230    0.0003 H   0  0  0  0  0  0  0  0  0  0  0  0
  1 25  1  0  0  0  0
  2 25  1  0  0  0  0
  3 25  1  0  0  0  0
  4 16  1  0  0  0  0
  4 26  1  0  0  0  0
  5 19  2  0  0  0  0
  6 11  1  0  0  0  0
  6 19  1  0  0  0  0
  6 30  1  0  0  0  0
  7 12  2  0  0  0  0
  7 18  1  0  0  0  0
  8 19  1  0  0  0  0
  8 20  1  0  0  0  0
  8 33  1  0  0  0  0
  9 20  1  0  0  0  0
  9 21  2  0  0  0  0
 10 11  2  0  0  0  0
 10 12  1  0  0  0  0
 10 13  1  0  0  0  0
 11 15  1  0  0  0  0
 12 14  1  0  0  0  0
 13 17  2  0  0  0  0
 13 27  1  0  0  0  0
 14 16  2  0  0  0  0
 14 28  1  0  0  0  0
 15 18  2  0  0  0  0
 15 29  1  0  0  0  0
 16 17  1  0  0  0  0
 17 31  1  0  0  0  0
 18 32  1  0  0  0  0
 20 22  2  0  0  0  0
 21 23  1  0  0  0  0
 21 25  1  0  0  0  0
 22 24  1  0  0  0  0
 22 34  1  0  0  0  0
 23 24  2  0  0  0  0
 23 35  1  0  0  0  0
 24 36  1  0  0  0  0
 26 37  1  0  0  0  0
 26 38  1  0  0  0  0
 26 39  1  0  0  0  0
M  END
> <PUBCHEM_COMPOUND_CID>
49830684

> <PUBCHEM_CONFORMER_RMSD>
0.8

> <PUBCHEM_CONFORMER_DIVERSEORDER>
1
29
28
20
33
5
13
11
34
12
6
9
27
7
19
2
10
18
3
31
14
22
17
32
4
36
30
35
24
16
23
15
25
26
8
21

> <PUBCHEM_MMFF94_PARTIAL_CHARGES>
35
1 -0.34
11 0.12
12 0.31
13 -0.15
14 -0.15
15 -0.15
16 0.08
17 -0.15
18 0.16
19 0.69
2 -0.34
20 0.43
21 0.17
22 -0.15
23 -0.15
24 -0.15
25 1.16
26 0.28
27 0.15
28 0.15
29 0.15
3 -0.34
30 0.37
31 0.15
32 0.15
33 0.37
34 0.15
35 0.15
36 0.15
4 -0.36
5 -0.57
6 -0.55
7 -0.62
8 -0.55
9 -0.62

> <PUBCHEM_EFFECTIVE_ROTOR_COUNT>
6

> <PUBCHEM_PHARMACOPHORE_FEATURES>
9
1 4 acceptor
1 5 acceptor
1 6 donor
1 7 acceptor
1 8 donor
1 9 acceptor
6 10 12 13 14 16 17 rings
6 7 10 11 12 15 18 rings
6 9 20 21 22 23 24 rings

> <PUBCHEM_HEAVY_ATOM_COUNT>
26

> <PUBCHEM_ATOM_DEF_STEREO_COUNT>
0

> <PUBCHEM_ATOM_UDEF_STEREO_COUNT>
0

> <PUBCHEM_BOND_DEF_STEREO_COUNT>
0

> <PUBCHEM_BOND_UDEF_STEREO_COUNT>
0

> <PUBCHEM_ISOTOPIC_ATOM_COUNT>
0

> <PUBCHEM_COMPONENT_COUNT>
1

> <PUBCHEM_CACTVS_TAUTO_COUNT>
11

> <PUBCHEM_CONFORMER_ID>
02F85B1C00000001

> <PUBCHEM_MMFF94_ENERGY>
83.6316

> <PUBCHEM_FEATURE_SELFOVERLAP>
45.757

> <PUBCHEM_SHAPE_FINGERPRINT>
10411042 1 17689999355972638823
10595046 47 18193556902925435156
10835480 77 18271802484070297552
11315181 36 17489872656678219243
11405975 8 18410009979031727122
11719270 70 17846779585605181486
11796584 16 18342459266235166130
12107183 9 18336821979618784090
12236239 1 18260828228416330905
13073987 5 18265051508239282498
13167372 99 18412827975541414977
13167823 11 18337951311357801330
13785724 45 18124598579418050958
14117953 113 18201443524439927622
14257110 125 18410292489834261521
14341114 176 18336831982249742156
14904525 67 15430031076090859878
14933364 13 18408325509648078549
15183329 4 18341899575808156936
15196674 1 18338799021457541984
15419008 42 18057040199127687532
1577012 14 18411699923808321885
17844677 252 18338242668906307200
1813 80 16877937282817817716
18335252 114 18412254018056462013
19611394 137 17969518164020533745
20281389 69 18335421279341612385
21033648 29 17916011537664834384
21065198 57 18267021850350954744
21236236 1 18340768256238181679
21279426 13 18412266133615196398
21315764 268 18336823190678956653
21585482 111 18047472228545363605
21774942 28 17273987839437950665
21859007 373 17968933068604278781
23559900 14 18343297089209227112
23569943 247 17314212385449432594
249057 3 18411138030464133204
2838139 119 18412539904212193693
3004659 81 18409168823099175944
3103668 31 18043529400484031060
335352 9 18410855455870293581
350125 39 18335980878814198497
3545911 37 18410012131000337197
4073 2 18042126625688701626
4144715 1 18116723008880493537
4214541 1 18410574023822052516
5104073 3 18338234972208823530
531348 171 18201999971522790111
559249 180 18411698794279512611
59755656 215 18411140190706141262
59755656 520 18334852819208816711
6299153 45 18339082575425459689
633830 44 17677328450053649922
9965369 4 18410854348000677193
9995097 60 18413389843299980934
9996256 80 18339923818043501959

> <PUBCHEM_SHAPE_MULTIPOLES>
481.58
19.92
2.93
0.65
2.86
0.13
0
-5.97
0
-0.68
0
0.31
0.1
0

> <PUBCHEM_SHAPE_SELFOVERLAP>
1055.18

> <PUBCHEM_SHAPE_VOLUME>
260.2

> <PUBCHEM_COORDINATE_TYPE>
2
5
10

$$$$
49830695
  -OEChem-05102415023D

 36 38  0     0  0  0  0  0  0999 V2000
    6.6803    1.8283    0.0079 Br  0  0  0  0  0  0  0  0  0  0  0  0
   -6.2524   -1.2651    0.0022 O   0  0  0  0  0  0  0  0  0  0  0  0
    1.8068    1.5053   -0.0029 O   0  0  0  0  0  0  0  0  0  0  0  0
    0.0509   -0.0442   -0.0019 N   0  0  0  0  0  0  0  0  0  0  0  0
   -3.2942    2.4651   -0.0004 N   0  0  0  0  0  0  0  0  0  0  0  0
    2.2308   -0.7944   -0.0029 N   0  0  0  0  0  0  0  0  0  0  0  0
    4.3347    0.3137    0.0002 N   0  0  0  0  0  0  0  0  0  0  0  0
   -2.3828    0.2344   -0.0004 C   0  0  0  0  0  0  0  0  0  0  0  0
   -1.0878    0.7699   -0.0014 C   0  0  0  0  0  0  0  0  0  0  0  0
   -3.4721    1.1306   -0.0001 C   0  0  0  0  0  0  0  0  0  0  0  0
   -2.6054   -1.1531    0.0004 C   0  0  0  0  0  0  0  0  0  0  0  0
   -4.7585    0.5979    0.0006 C   0  0  0  0  0  0  0  0  0  0  0  0
   -4.9799   -0.7815    0.0014 C   0  0  0  0  0  0  0  0  0  0  0  0
   -0.9012    2.1448   -0.0016 C   0  0  0  0  0  0  0  0  0  0  0  0
   -3.9024   -1.6583    0.0015 C   0  0  0  0  0  0  0  0  0  0  0  0
   -2.0280    2.9416   -0.0009 C   0  0  0  0  0  0  0  0  0  0  0  0
    1.4098    0.3445   -0.0026 C   0  0  0  0  0  0  0  0  0  0  0  0
    3.6447   -0.8489   -0.0037 C   0  0  0  0  0  0  0  0  0  0  0  0
    4.2362   -2.1018   -0.0044 C   0  0  0  0  0  0  0  0  0  0  0  0
   -6.4074   -2.6835    0.0031 C   0  0  0  0  0  0  0  0  0  0  0  0
    5.6253   -2.1657   -0.0007 C   0  0  0  0  0  0  0  0  0  0  0  0
    6.3698   -0.9914    0.0034 C   0  0  0  0  0  0  0  0  0  0  0  0
    5.6827    0.2119    0.0034 C   0  0  0  0  0  0  0  0  0  0  0  0
   -1.8017   -1.8821    0.0003 H   0  0  0  0  0  0  0  0  0  0  0  0
   -5.6159    1.2693    0.0008 H   0  0  0  0  0  0  0  0  0  0  0  0
    0.0414    2.6661   -0.0022 H   0  0  0  0  0  0  0  0  0  0  0  0
   -3.9991   -2.7384    0.0021 H   0  0  0  0  0  0  0  0  0  0  0  0
   -0.0960   -1.0464   -0.0018 H   0  0  0  0  0  0  0  0  0  0  0  0
   -1.9456    4.0237   -0.0010 H   0  0  0  0  0  0  0  0  0  0  0  0
    1.7588   -1.6952   -0.0036 H   0  0  0  0  0  0  0  0  0  0  0  0
    3.6507   -3.0154   -0.0069 H   0  0  0  0  0  0  0  0  0  0  0  0
    6.1266   -3.1289   -0.0009 H   0  0  0  0  0  0  0  0  0  0  0  0
   -7.4825   -2.8911    0.0037 H   0  0  0  0  0  0  0  0  0  0  0  0
   -5.9946   -3.1329    0.9127 H   0  0  0  0  0  0  0  0  0  0  0  0
   -5.9954   -3.1340   -0.9063 H   0  0  0  0  0  0  0  0  0  0  0  0
    7.4538   -1.0368    0.0062 H   0  0  0  0  0  0  0  0  0  0  0  0
  1 23  1  0  0  0  0
  2 13  1  0  0  0  0
  2 20  1  0  0  0  0
  3 17  2  0  0  0  0
  4  9  1  0  0  0  0
  4 17  1  0  0  0  0
  4 28  1  0  0  0  0
  5 10  2  0  0  0  0
  5 16  1  0  0  0  0
  6 17  1  0  0  0  0
  6 18  1  0  0  0  0
  6 30  1  0  0  0  0
  7 18  2  0  0  0  0
  7 23  1  0  0  0  0
  8  9  2  0  0  0  0
  8 10  1  0  0  0  0
  8 11  1  0  0  0  0
  9 14  1  0  0  0  0
 10 12  1  0  0  0  0
 11 15  2  0  0  0  0
 11 24  1  0  0  0  0
 12 13  2  0  0  0  0
 12 25  1  0  0  0  0
 13 15  1  0  0  0  0
 14 16  2  0  0  0  0
 14 26  1  0  0  0  0
 15 27  1  0  0  0  0
 16 29  1  0  0  0  0
 18 19  1  0  0  0  0
 19 21  2  0  0  0  0
 19 31  1  0  0  0  0
 20 33  1  0  0  0  0
 20 34  1  0  0  0  0
 20 35  1  0  0  0  0
 21 22  1  0  0  0  0
 21 32  1  0  0  0  0
 22 23  2  0  0  0  0
 22 36  1  0  0  0  0
M  END
> <PUBCHEM_COMPOUND_CID>
49830695

> <PUBCHEM_CONFORMER_RMSD>
0.8

> <PUBCHEM_CONFORMER_DIVERSEORDER>
1
27
28
12
10
11
7
6
9
20
18
19
5
17
26
24
2
14
21
3
13
22
23
8
4
25
15
16

> <PUBCHEM_MMFF94_PARTIAL_CHARGES>
32
1 -0.11
10 0.31
11 -0.15
12 -0.15
13 0.08
14 -0.15
15 -0.15
16 0.16
17 0.69
18 0.43
19 -0.15
2 -0.36
20 0.28
21 -0.15
22 -0.15
23 0.42
24 0.15
25 0.15
26 0.15
27 0.15
28 0.37
29 0.15
3 -0.57
30 0.37
31 0.15
32 0.15
36 0.15
4 -0.55
5 -0.62
6 -0.55
7 -0.62
9 0.12

> <PUBCHEM_EFFECTIVE_ROTOR_COUNT>
5

> <PUBCHEM_PHARMACOPHORE_FEATURES>
9
1 1 hydrophobe
1 2 acceptor
1 3 acceptor
1 4 donor
1 5 acceptor
1 6 donor
6 5 8 9 10 14 16 rings
6 7 18 19 21 22 23 rings
6 8 10 11 12 13 15 rings

> <PUBCHEM_HEAVY_ATOM_COUNT>
23

> <PUBCHEM_ATOM_DEF_STEREO_COUNT>
0

> <PUBCHEM_ATOM_UDEF_STEREO_COUNT>
0

> <PUBCHEM_BOND_DEF_STEREO_COUNT>
0

> <PUBCHEM_BOND_UDEF_STEREO_COUNT>
0

> <PUBCHEM_ISOTOPIC_ATOM_COUNT>
0

> <PUBCHEM_COMPONENT_COUNT>
1

> <PUBCHEM_CACTVS_TAUTO_COUNT>
11

> <PUBCHEM_CONFORMER_ID>
02F85B2700000001

> <PUBCHEM_MMFF94_ENERGY>
81.288

> <PUBCHEM_FEATURE_SELFOVERLAP>
45.752

> <PUBCHEM_SHAPE_FINGERPRINT>
10411042 1 18338517560452371111
10595046 47 18408324367866928528
10835480 77 18409721842503471684
10968037 39 18408041836048746711
11315181 36 18334297543523209092
11524674 6 16487535853738624887
12107183 9 17471852498855035370
12166972 35 17749392598085253413
12236239 1 18186520986195601020
12516196 113 18341895216152425528
12760667 363 18409732881064898203
13073987 5 18412261714626754600
13167823 11 18337951186940847810
13288520 33 18410573990306242071
13631057 29 18410854352079496667
13685833 64 18409169939321622851
13862211 1 18340769334259376159
14251732 16 18411981381974142528
14251764 18 18131073744968818683
14341114 176 18411422787149344300
14347332 77 18408039602417911061
14461889 52 18337949091313234786
14528608 73 18408890620982607500
15196674 1 18410573942729337824
15250474 111 18116704123973343842
15927050 60 17551510381163368684
16087824 20 18265050242596314245
17492 89 18268430123400241830
17844677 252 18339930320855966776
17857418 61 18410293609696924286
18335252 98 18411421747814640642
21130935 74 18271808999509194866
21236236 1 18340769247942954425
21267235 1 18408890663673927915
21315763 129 18337107857517526644
21315763 28 18409448069009238290
22896161 15 18410856598721750158
2297311 6 18342462525603277165
23402539 116 18409445865258245653
23522609 53 18124066552332557113
23559900 14 18411128165151620953
239999 70 18272374114922686014
3004659 81 18040992973096831383
3246875 12 18268424823705822544
329604 57 18413109455245362776
335352 9 18410570700851891109
34797466 226 17775293789812635300
350125 39 18413671322360831128
4073 2 18186527613905398954
4214541 1 18338798897225562084
4325135 7 18409168840173641324
497634 4 18336548218229796308
5104073 3 18271802368379831544
59682541 35 18271798078081977714
67856867 119 18261679280576661132
7495541 125 17989480819324012448
7970288 3 18338795736531215023
999808 66 18041008384073168547

> <PUBCHEM_SHAPE_MULTIPOLES>
447.61
18.34
2.93
0.6
10.98
0.53
0
-8.14
0.03
-1.31
0
0.05
0
0.01

> <PUBCHEM_SHAPE_SELFOVERLAP>
962.579

> <PUBCHEM_SHAPE_VOLUME>
251.3

> <PUBCHEM_COORDINATE_TYPE>
2
5
10

$$$$
24859013
  -OEChem-05102415023D

 34 36  0     0  0  0  0  0  0999 V2000
   -6.3109   -0.7752   -0.0005 F   0  0  0  0  0  0  0  0  0  0  0  0
   -5.4866    0.9136    1.0824 F   0  0  0  0  0  0  0  0  0  0  0  0
   -5.4659    0.9050   -1.0920 F   0  0  0  0  0  0  0  0  0  0  0  0
    2.3358    1.6161    0.0014 O   0  0  0  0  0  0  0  0  0  0  0  0
    0.9130   -0.2441    0.0017 N   0  0  0  0  0  0  0  0  0  0  0  0
   -2.8542    1.5710    0.0003 N   0  0  0  0  0  0  0  0  0  0  0  0
    3.1970   -0.5582    0.0017 N   0  0  0  0  0  0  0  0  0  0  0  0
    5.0690    0.9236    0.0001 N   0  0  0  0  0  0  0  0  0  0  0  0
    6.7736   -1.3036   -0.0017 N   0  0  0  0  0  0  0  0  0  0  0  0
   -1.5286   -0.4416    0.0011 C   0  0  0  0  0  0  0  0  0  0  0  0
   -2.7707    0.2270    0.0004 C   0  0  0  0  0  0  0  0  0  0  0  0
   -0.3617    0.3344    0.0015 C   0  0  0  0  0  0  0  0  0  0  0  0
   -3.9296   -0.5443    0.0001 C   0  0  0  0  0  0  0  0  0  0  0  0
   -1.4786   -1.8459    0.0014 C   0  0  0  0  0  0  0  0  0  0  0  0
   -3.8802   -1.9405    0.0003 C   0  0  0  0  0  0  0  0  0  0  0  0
   -0.4444    1.7194    0.0014 C   0  0  0  0  0  0  0  0  0  0  0  0
   -2.6533   -2.5925    0.0009 C   0  0  0  0  0  0  0  0  0  0  0  0
   -5.2755    0.1122   -0.0003 C   0  0  0  0  0  0  0  0  0  0  0  0
   -1.7042    2.2832    0.0008 C   0  0  0  0  0  0  0  0  0  0  0  0
    2.1710    0.4003    0.0017 C   0  0  0  0  0  0  0  0  0  0  0  0
    4.5947   -0.3380    0.0018 C   0  0  0  0  0  0  0  0  0  0  0  0
    5.4319   -1.4320    0.0008 C   0  0  0  0  0  0  0  0  0  0  0  0
    6.4106    1.0519   -0.0023 C   0  0  0  0  0  0  0  0  0  0  0  0
    7.2479   -0.0420   -0.0033 C   0  0  0  0  0  0  0  0  0  0  0  0
   -0.5499   -2.4067    0.0019 H   0  0  0  0  0  0  0  0  0  0  0  0
   -4.7880   -2.5374   -0.0001 H   0  0  0  0  0  0  0  0  0  0  0  0
    0.3794    2.4132    0.0019 H   0  0  0  0  0  0  0  0  0  0  0  0
   -2.6113   -3.6775    0.0011 H   0  0  0  0  0  0  0  0  0  0  0  0
    0.9628   -1.2557    0.0018 H   0  0  0  0  0  0  0  0  0  0  0  0
   -1.8327    3.3608    0.0007 H   0  0  0  0  0  0  0  0  0  0  0  0
    2.9096   -1.5337    0.0021 H   0  0  0  0  0  0  0  0  0  0  0  0
    5.0638   -2.4516    0.0015 H   0  0  0  0  0  0  0  0  0  0  0  0
    6.7924    2.0654   -0.0035 H   0  0  0  0  0  0  0  0  0  0  0  0
    8.3258    0.0621   -0.0052 H   0  0  0  0  0  0  0  0  0  0  0  0
  1 18  1  0  0  0  0
  2 18  1  0  0  0  0
  3 18  1  0  0  0  0
  4 20  2  0  0  0  0
  5 12  1  0  0  0  0
  5 20  1  0  0  0  0
  5 29  1  0  0  0  0
  6 11  2  0  0  0  0
  6 19  1  0  0  0  0
  7 20  1  0  0  0  0
  7 21  1  0  0  0  0
  7 31  1  0  0  0  0
  8 21  2  0  0  0  0
  8 23  1  0  0  0  0
  9 22  2  0  0  0  0
  9 24  1  0  0  0  0
 10 11  1  0  0  0  0
 10 12  2  0  0  0  0
 10 14  1  0  0  0  0
 11 13  1  0  0  0  0
 12 16  1  0  0  0  0
 13 15  2  0  0  0  0
 13 18  1  0  0  0  0
 14 17  2  0  0  0  0
 14 25  1  0  0  0  0
 15 17  1  0  0  0  0
 15 26  1  0  0  0  0
 16 19  2  0  0  0  0
 16 27  1  0  0  0  0
 17 28  1  0  0  0  0
 19 30  1  0  0  0  0
 21 22  1  0  0  0  0
 22 32  1  0  0  0  0
 23 24  2  0  0  0  0
 23 33  1  0  0  0  0
 24 34  1  0  0  0  0
M  END
> <PUBCHEM_COMPOUND_CID>
24859013

> <PUBCHEM_CONFORMER_RMSD>
0.8

> <PUBCHEM_CONFORMER_DIVERSEORDER>
1
11
20
17
16
9
13
7
10
18
2
12
8
19
14
6
15
4
3
5

> <PUBCHEM_MMFF94_PARTIAL_CHARGES>
33
1 -0.34
11 0.31
12 0.12
13 -0.14
14 -0.15
15 -0.15
16 -0.15
17 -0.15
18 1.16
19 0.16
2 -0.34
20 0.69
21 0.43
22 0.16
23 0.16
24 0.16
25 0.15
26 0.15
27 0.15
28 0.15
29 0.37
3 -0.34
30 0.15
31 0.37
32 0.15
33 0.15
34 0.15
4 -0.57
5 -0.55
6 -0.62
7 -0.55
8 -0.62
9 -0.62

> <PUBCHEM_EFFECTIVE_ROTOR_COUNT>
5

> <PUBCHEM_PHARMACOPHORE_FEATURES>
8
1 4 acceptor
1 5 donor
1 6 acceptor
1 7 donor
1 9 acceptor
6 10 11 13 14 15 17 rings
6 6 10 11 12 16 19 rings
6 8 9 21 22 23 24 rings

> <PUBCHEM_HEAVY_ATOM_COUNT>
24

> <PUBCHEM_ATOM_DEF_STEREO_COUNT>
0

> <PUBCHEM_ATOM_UDEF_STEREO_COUNT>
0

> <PUBCHEM_BOND_DEF_STEREO_COUNT>
0

> <PUBCHEM_BOND_UDEF_STEREO_COUNT>
0

> <PUBCHEM_ISOTOPIC_ATOM_COUNT>
0

> <PUBCHEM_COMPONENT_COUNT>
1

> <PUBCHEM_CACTVS_TAUTO_COUNT>
11

> <PUBCHEM_CONFORMER_ID>
017B518500000001

> <PUBCHEM_MMFF94_ENERGY>
72.0692

> <PUBCHEM_FEATURE_SELFOVERLAP>
40.678

> <PUBCHEM_SHAPE_FINGERPRINT>
10 15 18130212849334940200
10411042 1 18122343756131960079
10595046 47 18335422383532900564
10835480 77 18341324604621465624
10906281 52 18270420346070975916
10968037 39 18408323297750132879
11315181 36 17989489644817089424
11524674 6 16845854606844725150
11578080 2 13684923518445098297
12236239 1 17822009809139626294
12516196 113 18130785672716853448
12616971 3 17167866408750587374
12760667 363 18272368672217497973
12788726 201 18335414613003737113
12838862 33 18337091415939430541
13288520 33 18411700988933590597
13402501 40 18343022194370749294
13533116 47 17632296727599978166
13862211 1 18412263965337434175
14251752 14 17967525753417321436
14251764 18 18272092720985435443
14341114 176 18410295817890506092
15021287 119 17458070373793326837
15042514 8 18336830909257186435
15183329 4 18409163299085853442
15196674 1 18338797934841365603
15849732 13 17749108894152371743
17492 89 17906732854060387339
17844677 252 18412269428704776096
17857418 61 18410855473646131398
21236236 1 18343021043414615457
21267235 1 18335987558036989619
2297311 6 18342462530140922004
23035841 295 18408322181391029882
23402539 116 18342171185302939759
23522609 53 18196683806648028432
23559900 14 18341324604120247384
3004659 81 18333168363210703722
335352 9 18410854374208389509
34797466 226 17846787325943370004
350125 39 18411419527248275480
3545911 37 18410855460676833484
4073 2 18114185298090786834
4214541 1 18410573968631140320
4325135 7 18334298687028813668
4463277 17 18409448094225030672
5104073 3 18341617082655055585
559249 180 18409164424230310183
59755656 215 18410012105077981630
59755656 520 16732700571016728547
6138700 20 18409448081530234215
67856867 119 18189902092353319804
7226269 152 18201439147535702857
999808 66 17967827080339822163

> <PUBCHEM_SHAPE_MULTIPOLES>
441.31
17.68
2.14
0.65
21.19
0.29
0
2.17
0.01
-1.33
0
-0.37
-0.06
0

> <PUBCHEM_SHAPE_SELFOVERLAP>
974.292

> <PUBCHEM_SHAPE_VOLUME>
235.8

> <PUBCHEM_COORDINATE_TYPE>
2
5
10

$$$$
49830699
  -OEChem-05102415033D

 36 38  0     0  0  0  0  0  0999 V2000
   -6.1718   -2.6489    0.0007 F   0  0  0  0  0  0  0  0  0  0  0  0
   -6.9180   -0.9177    1.0843 F   0  0  0  0  0  0  0  0  0  0  0  0
   -6.9173   -0.9185   -1.0845 F   0  0  0  0  0  0  0  0  0  0  0  0
    1.9159    1.7892   -0.0001 O   0  0  0  0  0  0  0  0  0  0  0  0
    0.2096    0.1851   -0.0004 N   0  0  0  0  0  0  0  0  0  0  0  0
   -3.2128    2.5879   -0.0001 N   0  0  0  0  0  0  0  0  0  0  0  0
    2.4120   -0.4961   -0.0005 N   0  0  0  0  0  0  0  0  0  0  0  0
    4.4799    0.6777    0.0004 N   0  0  0  0  0  0  0  0  0  0  0  0
    9.1418   -0.5417    0.0014 N   0  0  0  0  0  0  0  0  0  0  0  0
   -2.2317    0.3869    0.0000 C   0  0  0  0  0  0  0  0  0  0  0  0
   -3.3487    1.2485   -0.0001 C   0  0  0  0  0  0  0  0  0  0  0  0
   -0.9542    0.9630   -0.0003 C   0  0  0  0  0  0  0  0  0  0  0  0
   -4.7956   -0.7101    0.0002 C   0  0  0  0  0  0  0  0  0  0  0  0
   -2.4105   -1.0069    0.0004 C   0  0  0  0  0  0  0  0  0  0  0  0
   -4.6176    0.6756   -0.0002 C   0  0  0  0  0  0  0  0  0  0  0  0
   -3.6910   -1.5526    0.0007 C   0  0  0  0  0  0  0  0  0  0  0  0
   -0.8109    2.3430   -0.0001 C   0  0  0  0  0  0  0  0  0  0  0  0
   -6.1722   -1.2840    0.0002 C   0  0  0  0  0  0  0  0  0  0  0  0
   -1.9622    3.1040    0.0001 C   0  0  0  0  0  0  0  0  0  0  0  0
    1.5556    0.6165   -0.0003 C   0  0  0  0  0  0  0  0  0  0  0  0
    3.8270   -0.5061   -0.0005 C   0  0  0  0  0  0  0  0  0  0  0  0
    4.4577   -1.7397   -0.0012 C   0  0  0  0  0  0  0  0  0  0  0  0
    5.8480   -1.7599   -0.0009 C   0  0  0  0  0  0  0  0  0  0  0  0
    6.5552   -0.5626   -0.0002 C   0  0  0  0  0  0  0  0  0  0  0  0
    5.8307    0.6183    0.0005 C   0  0  0  0  0  0  0  0  0  0  0  0
    7.9814   -0.5511    0.0007 C   0  0  0  0  0  0  0  0  0  0  0  0
   -1.5850   -1.7109    0.0006 H   0  0  0  0  0  0  0  0  0  0  0  0
   -5.4936    1.3229   -0.0004 H   0  0  0  0  0  0  0  0  0  0  0  0
   -3.8044   -2.6329    0.0011 H   0  0  0  0  0  0  0  0  0  0  0  0
    0.1147    2.8937   -0.0001 H   0  0  0  0  0  0  0  0  0  0  0  0
    0.0942   -0.8211   -0.0006 H   0  0  0  0  0  0  0  0  0  0  0  0
   -1.9140    4.1881    0.0003 H   0  0  0  0  0  0  0  0  0  0  0  0
    1.9686   -1.4112   -0.0009 H   0  0  0  0  0  0  0  0  0  0  0  0
    3.9009   -2.6711   -0.0018 H   0  0  0  0  0  0  0  0  0  0  0  0
    6.3666   -2.7154   -0.0013 H   0  0  0  0  0  0  0  0  0  0  0  0
    6.3229    1.5867    0.0013 H   0  0  0  0  0  0  0  0  0  0  0  0
  1 18  1  0  0  0  0
  2 18  1  0  0  0  0
  3 18  1  0  0  0  0
  4 20  2  0  0  0  0
  5 12  1  0  0  0  0
  5 20  1  0  0  0  0
  5 31  1  0  0  0  0
  6 11  2  0  0  0  0
  6 19  1  0  0  0  0
  7 20  1  0  0  0  0
  7 21  1  0  0  0  0
  7 33  1  0  0  0  0
  8 21  2  0  0  0  0
  8 25  1  0  0  0  0
  9 26  3  0  0  0  0
 10 11  1  0  0  0  0
 10 12  2  0  0  0  0
 10 14  1  0  0  0  0
 11 15  1  0  0  0  0
 12 17  1  0  0  0  0
 13 15  2  0  0  0  0
 13 16  1  0  0  0  0
 13 18  1  0  0  0  0
 14 16  2  0  0  0  0
 14 27  1  0  0  0  0
 15 28  1  0  0  0  0
 16 29  1  0  0  0  0
 17 19  2  0  0  0  0
 17 30  1  0  0  0  0
 19 32  1  0  0  0  0
 21 22  1  0  0  0  0
 22 23  2  0  0  0  0
 22 34  1  0  0  0  0
 23 24  1  0  0  0  0
 23 35  1  0  0  0  0
 24 25  2  0  0  0  0
 24 26  1  0  0  0  0
 25 36  1  0  0  0  0
M  END
> <PUBCHEM_COMPOUND_CID>
49830699

> <PUBCHEM_CONFORMER_RMSD>
0.8

> <PUBCHEM_CONFORMER_DIVERSEORDER>
1
22
5
8
16
13
6
7
10
15
20
9
14
3
21
2
12
18
19
17
4
11

> <PUBCHEM_MMFF94_PARTIAL_CHARGES>
35
1 -0.34
11 0.31
12 0.12
13 -0.14
14 -0.15
15 -0.15
16 -0.15
17 -0.15
18 1.16
19 0.16
2 -0.34
20 0.69
21 0.43
22 -0.15
23 -0.15
24 0.07
25 0.16
26 0.48
27 0.15
28 0.15
29 0.15
3 -0.34
30 0.15
31 0.37
32 0.15
33 0.37
34 0.15
35 0.15
36 0.15
4 -0.57
5 -0.55
6 -0.62
7 -0.55
8 -0.62
9 -0.56

> <PUBCHEM_EFFECTIVE_ROTOR_COUNT>
5

> <PUBCHEM_PHARMACOPHORE_FEATURES>
8
1 4 acceptor
1 5 donor
1 6 acceptor
1 7 donor
1 9 acceptor
6 10 11 13 14 15 16 rings
6 6 10 11 12 17 19 rings
6 8 21 22 23 24 25 rings

> <PUBCHEM_HEAVY_ATOM_COUNT>
26

> <PUBCHEM_ATOM_DEF_STEREO_COUNT>
0

> <PUBCHEM_ATOM_UDEF_STEREO_COUNT>
0

> <PUBCHEM_BOND_DEF_STEREO_COUNT>
0

> <PUBCHEM_BOND_UDEF_STEREO_COUNT>
0

> <PUBCHEM_ISOTOPIC_ATOM_COUNT>
0

> <PUBCHEM_COMPONENT_COUNT>
1

> <PUBCHEM_CACTVS_TAUTO_COUNT>
11

> <PUBCHEM_CONFORMER_ID>
02F85B2B00000001

> <PUBCHEM_MMFF94_ENERGY>
71.1543

> <PUBCHEM_FEATURE_SELFOVERLAP>
40.678

> <PUBCHEM_SHAPE_FINGERPRINT>
10299344 5 18411704287932730026
10411042 1 18338517564652678693
10595046 47 18335140856900641784
11315181 36 18260550008729788773
11524674 6 16486972907953485863
12166972 35 17749391494052181804
12236239 1 18040718047829365140
12516196 113 18272650143347608496
12760667 363 18411982477459808891
13288520 33 18410292519561318613
13383668 251 16843574263147421192
1361 4 18410010992892909682
13631057 29 18411135818598180496
13673619 4 18130786771901576808
13685833 64 18410857676357829307
14251764 18 18413672413741187270
14347332 77 18407759222573724717
14556957 393 16226341317267257830
15183329 4 18186517700857239546
15419008 47 17917422121480003288
16087824 20 18337389315847871853
17492 89 18196091032889726134
17780758 139 17917716777869165177
17844677 252 18412550894891274008
18006028 8 18342455958988600277
18335252 98 18201441360034645302
18681886 176 18408880750910585912
19427546 20 18261109613500143053
21049683 271 18341614846059405424
21130935 74 18268144255141369226
21150785 3 16226048903172366666
21236236 1 18340769252259157153
21267235 1 18408326609713256609
21315763 28 18409166589885000020
21623969 137 17489309659833865046
21792934 111 18341609335473550225
21792961 116 18040712568416316527
22224240 67 16558747927703541422
22896161 15 18410575081196254180
2297311 6 18413109450512616953
23522609 53 18123785081745876185
23559900 14 18411128156403469769
3004659 81 18040430022842814176
335352 9 18409724046749622317
3383291 50 18260269685147699419
34797466 226 17775291582315509140
4073 2 18186528687947981250
4214541 1 18338798910216147392
4325135 7 18408041814964326542
5104073 3 18200870682670077160
59682541 35 18201714085967477218
5969126 39 18341323436327012365
6138700 20 18409166632581900659
636775 8 18335430083877097134
67856867 119 18334019415101872236
999808 66 18114191851989386579

> <PUBCHEM_SHAPE_MULTIPOLES>
482.47
22.55
2.51
0.65
26.71
1.11
0
-12.97
0.01
-3.26
0
-0.42
-0.06
0

> <PUBCHEM_SHAPE_SELFOVERLAP>
1062.961

> <PUBCHEM_SHAPE_VOLUME>
258

> <PUBCHEM_COORDINATE_TYPE>
2
5
10

$$$$
49830688
  -OEChem-05102415033D

 41 43  0     0  0  0  0  0  0999 V2000
    6.9490    0.5295   -0.1001 F   0  0  0  0  0  0  0  0  0  0  0  0
    5.4255    1.5925   -1.2300 F   0  0  0  0  0  0  0  0  0  0  0  0
    5.4642    1.7356    0.9337 F   0  0  0  0  0  0  0  0  0  0  0  0
    1.0043    1.3138   -0.0485 O   0  0  0  0  0  0  0  0  0  0  0  0
   -0.8905   -0.0570    0.0738 N   0  0  0  0  0  0  0  0  0  0  0  0
   -3.9806    2.7574   -0.0605 N   0  0  0  0  0  0  0  0  0  0  0  0
    1.2080   -1.0111    0.1014 N   0  0  0  0  0  0  0  0  0  0  0  0
    3.4073   -0.1122    0.0050 N   0  0  0  0  0  0  0  0  0  0  0  0
   -3.2868    0.4539    0.0801 C   0  0  0  0  0  0  0  0  0  0  0  0
   -4.9801   -1.2792    0.2230 C   0  0  0  0  0  0  0  0  0  0  0  0
   -3.6410   -0.9027    0.1758 C   0  0  0  0  0  0  0  0  0  0  0  0
   -4.2853    1.4491    0.0309 C   0  0  0  0  0  0  0  0  0  0  0  0
   -1.9467    0.8608    0.0311 C   0  0  0  0  0  0  0  0  0  0  0  0
   -5.3524   -2.7193    0.3242 C   0  0  0  0  0  0  0  0  0  0  0  0
   -5.9688   -0.3043    0.1748 C   0  0  0  0  0  0  0  0  0  0  0  0
   -5.6165    1.0442    0.0797 C   0  0  0  0  0  0  0  0  0  0  0  0
   -1.6296    2.2082   -0.0632 C   0  0  0  0  0  0  0  0  0  0  0  0
   -5.5210   -3.3738   -1.0448 C   0  0  0  0  0  0  0  0  0  0  0  0
   -2.6750    3.1083   -0.1054 C   0  0  0  0  0  0  0  0  0  0  0  0
    0.4988    0.1989    0.0336 C   0  0  0  0  0  0  0  0  0  0  0  0
    2.6100   -1.2006    0.0903 C   0  0  0  0  0  0  0  0  0  0  0  0
    4.7393   -0.3428   -0.0027 C   0  0  0  0  0  0  0  0  0  0  0  0
    3.0795   -2.5020    0.1677 C   0  0  0  0  0  0  0  0  0  0  0  0
    5.3086   -1.6038    0.0706 C   0  0  0  0  0  0  0  0  0  0  0  0
    4.4559   -2.6988    0.1572 C   0  0  0  0  0  0  0  0  0  0  0  0
    5.6240    0.8553   -0.0979 C   0  0  0  0  0  0  0  0  0  0  0  0
   -2.9011   -1.6959    0.2135 H   0  0  0  0  0  0  0  0  0  0  0  0
   -6.2837   -2.8256    0.8946 H   0  0  0  0  0  0  0  0  0  0  0  0
   -4.5920   -3.2646    0.8972 H   0  0  0  0  0  0  0  0  0  0  0  0
   -7.0205   -0.5764    0.2084 H   0  0  0  0  0  0  0  0  0  0  0  0
   -6.4098    1.7886    0.0432 H   0  0  0  0  0  0  0  0  0  0  0  0
   -0.6419    2.6353   -0.1078 H   0  0  0  0  0  0  0  0  0  0  0  0
   -1.1310   -1.0384    0.1425 H   0  0  0  0  0  0  0  0  0  0  0  0
   -6.3075   -2.8802   -1.6256 H   0  0  0  0  0  0  0  0  0  0  0  0
   -5.7940   -4.4274   -0.9287 H   0  0  0  0  0  0  0  0  0  0  0  0
   -4.5928   -3.3243   -1.6242 H   0  0  0  0  0  0  0  0  0  0  0  0
   -2.4895    4.1751   -0.1789 H   0  0  0  0  0  0  0  0  0  0  0  0
    0.6527   -1.8605    0.1667 H   0  0  0  0  0  0  0  0  0  0  0  0
    2.4097   -3.3530    0.2350 H   0  0  0  0  0  0  0  0  0  0  0  0
    6.3821   -1.7567    0.0621 H   0  0  0  0  0  0  0  0  0  0  0  0
    4.8632   -3.7037    0.2162 H   0  0  0  0  0  0  0  0  0  0  0  0
  1 26  1  0  0  0  0
  2 26  1  0  0  0  0
  3 26  1  0  0  0  0
  4 20  2  0  0  0  0
  5 13  1  0  0  0  0
  5 20  1  0  0  0  0
  5 33  1  0  0  0  0
  6 12  2  0  0  0  0
  6 19  1  0  0  0  0
  7 20  1  0  0  0  0
  7 21  1  0  0  0  0
  7 38  1  0  0  0  0
  8 21  1  0  0  0  0
  8 22  2  0  0  0  0
  9 11  1  0  0  0  0
  9 12  1  0  0  0  0
  9 13  2  0  0  0  0
 10 11  2  0  0  0  0
 10 14  1  0  0  0  0
 10 15  1  0  0  0  0
 11 27  1  0  0  0  0
 12 16  1  0  0  0  0
 13 17  1  0  0  0  0
 14 18  1  0  0  0  0
 14 28  1  0  0  0  0
 14 29  1  0  0  0  0
 15 16  2  0  0  0  0
 15 30  1  0  0  0  0
 16 31  1  0  0  0  0
 17 19  2  0  0  0  0
 17 32  1  0  0  0  0
 18 34  1  0  0  0  0
 18 35  1  0  0  0  0
 18 36  1  0  0  0  0
 19 37  1  0  0  0  0
 21 23  2  0  0  0  0
 22 24  1  0  0  0  0
 22 26  1  0  0  0  0
 23 25  1  0  0  0  0
 23 39  1  0  0  0  0
 24 25  2  0  0  0  0
 24 40  1  0  0  0  0
 25 41  1  0  0  0  0
M  END
> <PUBCHEM_COMPOUND_CID>
49830688

> <PUBCHEM_CONFORMER_RMSD>
0.8

> <PUBCHEM_CONFORMER_DIVERSEORDER>
1
20
27
21
28
10
32
24
33
14
4
25
12
31
34
15
3
22
16
9
2
38
8
37
17
18
23
11
39
19
13
5
30
26
35
7
29
36
6

> <PUBCHEM_MMFF94_PARTIAL_CHARGES>
34
1 -0.34
10 -0.14
11 -0.15
12 0.31
13 0.12
14 0.14
15 -0.15
16 -0.15
17 -0.15
19 0.16
2 -0.34
20 0.69
21 0.43
22 0.17
23 -0.15
24 -0.15
25 -0.15
26 1.16
27 0.15
3 -0.34
30 0.15
31 0.15
32 0.15
33 0.37
37 0.15
38 0.37
39 0.15
4 -0.57
40 0.15
41 0.15
5 -0.55
6 -0.62
7 -0.55
8 -0.62

> <PUBCHEM_EFFECTIVE_ROTOR_COUNT>
6

> <PUBCHEM_PHARMACOPHORE_FEATURES>
9
1 18 hydrophobe
1 4 acceptor
1 5 donor
1 6 acceptor
1 7 donor
1 8 acceptor
6 6 9 12 13 17 19 rings
6 8 21 22 23 24 25 rings
6 9 10 11 12 15 16 rings

> <PUBCHEM_HEAVY_ATOM_COUNT>
26

> <PUBCHEM_ATOM_DEF_STEREO_COUNT>
0

> <PUBCHEM_ATOM_UDEF_STEREO_COUNT>
0

> <PUBCHEM_BOND_DEF_STEREO_COUNT>
0

> <PUBCHEM_BOND_UDEF_STEREO_COUNT>
0

> <PUBCHEM_ISOTOPIC_ATOM_COUNT>
0

> <PUBCHEM_COMPONENT_COUNT>
1

> <PUBCHEM_CACTVS_TAUTO_COUNT>
11

> <PUBCHEM_CONFORMER_ID>
02F85B2000000001

> <PUBCHEM_MMFF94_ENERGY>
71.54

> <PUBCHEM_FEATURE_SELFOVERLAP>
45.756

> <PUBCHEM_SHAPE_FINGERPRINT>
10411042 1 18194402419737706771
10595046 47 18408042901042458490
10835480 77 18336539417957948653
11476731 50 17486757851985826335
11524674 6 16917344819340575271
12107183 9 17471289548416239442
13167823 11 18336826373154458890
13631057 29 18341330076293418363
14168556 18 18196367241961576000
14251732 16 18411699906707223138
14341114 176 18337958891637332209
14429380 30 18194401319830966399
14461889 52 18411412947616796162
14528608 73 18408610240900641476
14904525 67 16128655240993810824
15196674 1 18337391539405515202
15250474 111 18189886526970164307
15927050 60 17622163894541978012
16087824 20 18337389337512300549
16110190 28 18341899567624358707
17844677 252 18338524015012951928
17857418 61 18408604764453471967
18608769 82 18341890835729057896
20511986 3 17895747414237937071
21315763 129 18335700478133076432
23559900 14 18411128161252247121
239999 70 18270685238976282454
3004659 81 18262801753431501338
3246875 12 18340200920959718600
329604 57 18343584010505500328
335352 9 18410851076427711269
34797466 226 17917999360588832740
350125 39 18412265047147174161
394071 54 15625924479207236170
4073 2 18114189630953243738
4214541 1 18265333911076641537
4325135 7 18408042909721966620
497634 4 18336829684774821341
5104073 3 18340202977816277272
550186 72 18410572903210849581
6431902 208 18335984263702608667
67856867 119 18260835946320276517
7495541 125 18059850658422879418
7970288 3 18195523921303256463

> <PUBCHEM_SHAPE_MULTIPOLES>
487.45
18.19
3.53
0.71
12.43
0.87
0.07
4.12
0.49
-3.3
0.37
0.02
0.08
-0.72

> <PUBCHEM_SHAPE_SELFOVERLAP>
1063.523

> <PUBCHEM_SHAPE_VOLUME>
264.8

> <PUBCHEM_COORDINATE_TYPE>
2
5
10

$$$$
24858860
  -OEChem-05102415033D

 34 36  0     0  0  0  0  0  0999 V2000
   -5.5420    2.5596   -0.0007 F   0  0  0  0  0  0  0  0  0  0  0  0
   -6.2238    0.8082   -1.0832 F   0  0  0  0  0  0  0  0  0  0  0  0
   -6.2040    0.7995    1.0913 F   0  0  0  0  0  0  0  0  0  0  0  0
    2.6712   -1.6886   -0.0012 O   0  0  0  0  0  0  0  0  0  0  0  0
    0.9280   -0.1247   -0.0012 N   0  0  0  0  0  0  0  0  0  0  0  0
   -2.4371   -2.6070   -0.0002 N   0  0  0  0  0  0  0  0  0  0  0  0
    3.1141    0.6076   -0.0015 N   0  0  0  0  0  0  0  0  0  0  0  0
    5.2284   -0.5013   -0.0001 N   0  0  0  0  0  0  0  0  0  0  0  0
    6.4905    2.0034    0.0013 N   0  0  0  0  0  0  0  0  0  0  0  0
   -1.5079   -0.3835   -0.0006 C   0  0  0  0  0  0  0  0  0  0  0  0
   -2.6044   -1.2710   -0.0003 C   0  0  0  0  0  0  0  0  0  0  0  0
   -0.2172   -0.9295   -0.0008 C   0  0  0  0  0  0  0  0  0  0  0  0
   -4.0968    0.6531   -0.0004 C   0  0  0  0  0  0  0  0  0  0  0  0
   -1.7192    1.0057   -0.0008 C   0  0  0  0  0  0  0  0  0  0  0  0
   -3.8863   -0.7280   -0.0002 C   0  0  0  0  0  0  0  0  0  0  0  0
   -3.0121    1.5214   -0.0007 C   0  0  0  0  0  0  0  0  0  0  0  0
   -0.0417   -2.3058   -0.0007 C   0  0  0  0  0  0  0  0  0  0  0  0
   -5.4863    1.1948   -0.0004 C   0  0  0  0  0  0  0  0  0  0  0  0
   -1.1749   -3.0935   -0.0002 C   0  0  0  0  0  0  0  0  0  0  0  0
    2.2837   -0.5246   -0.0013 C   0  0  0  0  0  0  0  0  0  0  0  0
    4.5283    0.6505   -0.0018 C   0  0  0  0  0  0  0  0  0  0  0  0
    5.1483    1.8807   -0.0010 C   0  0  0  0  0  0  0  0  0  0  0  0
    6.5707   -0.3786    0.0019 C   0  0  0  0  0  0  0  0  0  0  0  0
    7.1905    0.8516    0.0027 C   0  0  0  0  0  0  0  0  0  0  0  0
   -0.9104    1.7289   -0.0011 H   0  0  0  0  0  0  0  0  0  0  0  0
   -4.7469   -1.3958   -0.0001 H   0  0  0  0  0  0  0  0  0  0  0  0
   -3.1521    2.5985   -0.0009 H   0  0  0  0  0  0  0  0  0  0  0  0
    0.8965   -2.8347   -0.0009 H   0  0  0  0  0  0  0  0  0  0  0  0
    0.7893    0.8787   -0.0013 H   0  0  0  0  0  0  0  0  0  0  0  0
   -1.1012   -4.1763   -0.0001 H   0  0  0  0  0  0  0  0  0  0  0  0
    2.6507    1.5128   -0.0017 H   0  0  0  0  0  0  0  0  0  0  0  0
    4.5973    2.8143   -0.0015 H   0  0  0  0  0  0  0  0  0  0  0  0
    7.1337   -1.3037    0.0031 H   0  0  0  0  0  0  0  0  0  0  0  0
    8.2691    0.9493    0.0045 H   0  0  0  0  0  0  0  0  0  0  0  0
  1 18  1  0  0  0  0
  2 18  1  0  0  0  0
  3 18  1  0  0  0  0
  4 20  2  0  0  0  0
  5 12  1  0  0  0  0
  5 20  1  0  0  0  0
  5 29  1  0  0  0  0
  6 11  2  0  0  0  0
  6 19  1  0  0  0  0
  7 20  1  0  0  0  0
  7 21  1  0  0  0  0
  7 31  1  0  0  0  0
  8 21  2  0  0  0  0
  8 23  1  0  0  0  0
  9 22  2  0  0  0  0
  9 24  1  0  0  0  0
 10 11  1  0  0  0  0
 10 12  2  0  0  0  0
 10 14  1  0  0  0  0
 11 15  1  0  0  0  0
 12 17  1  0  0  0  0
 13 15  2  0  0  0  0
 13 16  1  0  0  0  0
 13 18  1  0  0  0  0
 14 16  2  0  0  0  0
 14 25  1  0  0  0  0
 15 26  1  0  0  0  0
 16 27  1  0  0  0  0
 17 19  2  0  0  0  0
 17 28  1  0  0  0  0
 19 30  1  0  0  0  0
 21 22  1  0  0  0  0
 22 32  1  0  0  0  0
 23 24  2  0  0  0  0
 23 33  1  0  0  0  0
 24 34  1  0  0  0  0
M  END
> <PUBCHEM_COMPOUND_CID>
24858860

> <PUBCHEM_CONFORMER_RMSD>
0.8

> <PUBCHEM_CONFORMER_DIVERSEORDER>
1
11
12
16
6
7
10
2
20
19
13
8
9
18
14
15
5
4
3
17

> <PUBCHEM_MMFF94_PARTIAL_CHARGES>
33
1 -0.34
11 0.31
12 0.12
13 -0.14
14 -0.15
15 -0.15
16 -0.15
17 -0.15
18 1.16
19 0.16
2 -0.34
20 0.69
21 0.43
22 0.16
23 0.16
24 0.16
25 0.15
26 0.15
27 0.15
28 0.15
29 0.37
3 -0.34
30 0.15
31 0.37
32 0.15
33 0.15
34 0.15
4 -0.57
5 -0.55
6 -0.62
7 -0.55
8 -0.62
9 -0.62

> <PUBCHEM_EFFECTIVE_ROTOR_COUNT>
5

> <PUBCHEM_PHARMACOPHORE_FEATURES>
8
1 4 acceptor
1 5 donor
1 6 acceptor
1 7 donor
1 9 acceptor
6 10 11 13 14 15 16 rings
6 6 10 11 12 17 19 rings
6 8 9 21 22 23 24 rings

> <PUBCHEM_HEAVY_ATOM_COUNT>
24

> <PUBCHEM_ATOM_DEF_STEREO_COUNT>
0

> <PUBCHEM_ATOM_UDEF_STEREO_COUNT>
0

> <PUBCHEM_BOND_DEF_STEREO_COUNT>
0

> <PUBCHEM_BOND_UDEF_STEREO_COUNT>
0

> <PUBCHEM_ISOTOPIC_ATOM_COUNT>
0

> <PUBCHEM_COMPONENT_COUNT>
1

> <PUBCHEM_CACTVS_TAUTO_COUNT>
11

> <PUBCHEM_CONFORMER_ID>
017B50EC00000001

> <PUBCHEM_MMFF94_ENERGY>
71.0229

> <PUBCHEM_FEATURE_SELFOVERLAP>
40.678

> <PUBCHEM_SHAPE_FINGERPRINT>
10 15 18186807980595644977
10411042 1 17762056940982931687
10493431 412 18408888425795370167
106641 1 18335994125527081081
10835480 77 18201152274075491856
11578080 2 13900532246873153961
12107183 9 18263353699884646954
12236239 1 18040432218082766490
12390115 104 18342752814069124739
12788726 201 17702948024057714104
12838862 33 18337372890563207045
13533116 47 17845935113915796174
14257110 125 18409448081234614283
14790565 3 18340209570744466049
14933364 13 18409732876600956792
15183329 4 18343868797365920792
15196674 1 18338799017869482402
15778101 99 18410858784681015634
15927050 60 18409165515152841650
17844677 252 18265903643358215272
17980427 23 18336266846157675902
18608769 82 18340209695678319435
19611394 137 17969799642780677683
20281389 69 18333168358093011492
20645477 56 18408885135333489231
20681677 155 18334010627339912474
21033648 29 17988068020118297608
21236236 1 18341049717876569631
21859007 373 17532642430448233460
22224240 67 18334862702023296067
23198884 109 16343707616632720601
23402539 116 18342734143545589342
23559900 14 18200588207008275120
25147074 1 18336808841029833154
2838139 119 18413384328382709341
293599 30 18411419505398593875
3004659 81 18410013231113195858
335352 9 18410856551925548694
3472631 163 18411420631112445014
3545911 37 18410576175964606252
4073 2 18042127708463857722
4214541 1 18410574033203180422
5104073 3 18186523185061179899
59682541 35 18260561030702229641
5969126 39 18127124410850859719
59755656 215 18340773646248052174
59755656 520 18408879642097094487
6327066 14 18409443661977030677
636775 72 18271239521538228544
7226269 152 18202568375641260329
77188 2 17112976821055491471
7808743 9 18409726278956041083
9981440 41 18334301971988406907

> <PUBCHEM_SHAPE_MULTIPOLES>
441.31
17.9
2.63
0.65
16.91
1.14
0
-12.21
-0.01
-1.71
0
-0.42
-0.06
0

> <PUBCHEM_SHAPE_SELFOVERLAP>
972.422

> <PUBCHEM_SHAPE_VOLUME>
236.5

> <PUBCHEM_COORDINATE_TYPE>
2
5
10

$$$$
49830694
  -OEChem-05102415033D

 35 37  0     0  0  0  0  0  0999 V2000
   -6.8741   -1.3582    0.0002 Cl  0  0  0  0  0  0  0  0  0  0  0  0
   -7.3440    1.8028    0.0004 Cl  0  0  0  0  0  0  0  0  0  0  0  0
    7.0379   -0.8826    0.0017 F   0  0  0  0  0  0  0  0  0  0  0  0
    5.4371   -1.8786    1.0847 F   0  0  0  0  0  0  0  0  0  0  0  0
    5.4390   -1.8788   -1.0841 F   0  0  0  0  0  0  0  0  0  0  0  0
    1.0464   -1.1268   -0.0008 O   0  0  0  0  0  0  0  0  0  0  0  0
   -0.7182    0.4129   -0.0002 N   0  0  0  0  0  0  0  0  0  0  0  0
   -4.0491   -2.1150   -0.0001 N   0  0  0  0  0  0  0  0  0  0  0  0
    1.4576    1.1752   -0.0004 N   0  0  0  0  0  0  0  0  0  0  0  0
    3.5677    0.0789   -0.0008 N   0  0  0  0  0  0  0  0  0  0  0  0
   -3.1503    0.1208    0.0001 C   0  0  0  0  0  0  0  0  0  0  0  0
   -1.8523   -0.4076   -0.0002 C   0  0  0  0  0  0  0  0  0  0  0  0
   -4.2346   -0.7813    0.0001 C   0  0  0  0  0  0  0  0  0  0  0  0
   -3.3805    1.5071    0.0002 C   0  0  0  0  0  0  0  0  0  0  0  0
   -1.6581   -1.7813   -0.0004 C   0  0  0  0  0  0  0  0  0  0  0  0
   -5.5238   -0.2558    0.0002 C   0  0  0  0  0  0  0  0  0  0  0  0
   -4.6803    2.0052    0.0004 C   0  0  0  0  0  0  0  0  0  0  0  0
   -5.7530    1.1223    0.0003 C   0  0  0  0  0  0  0  0  0  0  0  0
   -2.7804   -2.5843   -0.0003 C   0  0  0  0  0  0  0  0  0  0  0  0
    0.6429    0.0317   -0.0005 C   0  0  0  0  0  0  0  0  0  0  0  0
    2.8712    1.2375   -0.0007 C   0  0  0  0  0  0  0  0  0  0  0  0
    4.9152    0.1884   -0.0005 C   0  0  0  0  0  0  0  0  0  0  0  0
    3.4554    2.4940    0.0000 C   0  0  0  0  0  0  0  0  0  0  0  0
    5.5952    1.3956   -0.0002 C   0  0  0  0  0  0  0  0  0  0  0  0
    4.8440    2.5657    0.0002 C   0  0  0  0  0  0  0  0  0  0  0  0
    5.6889   -1.0877    0.0005 C   0  0  0  0  0  0  0  0  0  0  0  0
   -2.5816    2.2413    0.0002 H   0  0  0  0  0  0  0  0  0  0  0  0
   -0.7126   -2.2974   -0.0005 H   0  0  0  0  0  0  0  0  0  0  0  0
   -0.8707    1.4142    0.0001 H   0  0  0  0  0  0  0  0  0  0  0  0
   -4.8360    3.0809    0.0006 H   0  0  0  0  0  0  0  0  0  0  0  0
   -2.6921   -3.6660   -0.0004 H   0  0  0  0  0  0  0  0  0  0  0  0
    0.9805    2.0733   -0.0001 H   0  0  0  0  0  0  0  0  0  0  0  0
    2.8646    3.4041    0.0003 H   0  0  0  0  0  0  0  0  0  0  0  0
    6.6782    1.4509    0.0001 H   0  0  0  0  0  0  0  0  0  0  0  0
    5.3398    3.5318    0.0007 H   0  0  0  0  0  0  0  0  0  0  0  0
  1 16  1  0  0  0  0
  2 18  1  0  0  0  0
  3 26  1  0  0  0  0
  4 26  1  0  0  0  0
  5 26  1  0  0  0  0
  6 20  2  0  0  0  0
  7 12  1  0  0  0  0
  7 20  1  0  0  0  0
  7 29  1  0  0  0  0
  8 13  2  0  0  0  0
  8 19  1  0  0  0  0
  9 20  1  0  0  0  0
  9 21  1  0  0  0  0
  9 32  1  0  0  0  0
 10 21  1  0  0  0  0
 10 22  2  0  0  0  0
 11 12  2  0  0  0  0
 11 13  1  0  0  0  0
 11 14  1  0  0  0  0
 12 15  1  0  0  0  0
 13 16  1  0  0  0  0
 14 17  2  0  0  0  0
 14 27  1  0  0  0  0
 15 19  2  0  0  0  0
 15 28  1  0  0  0  0
 16 18  2  0  0  0  0
 17 18  1  0  0  0  0
 17 30  1  0  0  0  0
 19 31  1  0  0  0  0
 21 23  2  0  0  0  0
 22 24  1  0  0  0  0
 22 26  1  0  0  0  0
 23 25  1  0  0  0  0
 23 33  1  0  0  0  0
 24 25  2  0  0  0  0
 24 34  1  0  0  0  0
 25 35  1  0  0  0  0
M  END
> <PUBCHEM_COMPOUND_CID>
49830694

> <PUBCHEM_CONFORMER_RMSD>
0.8

> <PUBCHEM_CONFORMER_DIVERSEORDER>
1
23
10
19
17
7
13
26
16
20
18
8
4
21
22
14
25
2
12
9
6
11
3
24
15
5

> <PUBCHEM_MMFF94_PARTIAL_CHARGES>
34
1 -0.18
10 -0.62
12 0.12
13 0.31
14 -0.15
15 -0.15
16 0.18
17 -0.15
18 0.18
19 0.16
2 -0.18
20 0.69
21 0.43
22 0.17
23 -0.15
24 -0.15
25 -0.15
26 1.16
27 0.15
28 0.15
29 0.37
3 -0.34
30 0.15
31 0.15
32 0.37
33 0.15
34 0.15
35 0.15
4 -0.34
5 -0.34
6 -0.57
7 -0.55
8 -0.62
9 -0.55

> <PUBCHEM_EFFECTIVE_ROTOR_COUNT>
5

> <PUBCHEM_PHARMACOPHORE_FEATURES>
8
1 10 acceptor
1 6 acceptor
1 7 donor
1 8 acceptor
1 9 donor
6 10 21 22 23 24 25 rings
6 11 13 14 16 17 18 rings
6 8 11 12 13 15 19 rings

> <PUBCHEM_HEAVY_ATOM_COUNT>
26

> <PUBCHEM_ATOM_DEF_STEREO_COUNT>
0

> <PUBCHEM_ATOM_UDEF_STEREO_COUNT>
0

> <PUBCHEM_BOND_DEF_STEREO_COUNT>
0

> <PUBCHEM_BOND_UDEF_STEREO_COUNT>
0

> <PUBCHEM_ISOTOPIC_ATOM_COUNT>
0

> <PUBCHEM_COMPONENT_COUNT>
1

> <PUBCHEM_CACTVS_TAUTO_COUNT>
11

> <PUBCHEM_CONFORMER_ID>
02F85B2600000001

> <PUBCHEM_MMFF94_ENERGY>
73.8185

> <PUBCHEM_FEATURE_SELFOVERLAP>
40.681

> <PUBCHEM_SHAPE_FINGERPRINT>
10411042 1 17762337316927835143
10595046 47 18265895950417894404
10835480 77 18271239525526987096
11315181 36 17632860836861851081
11405975 8 18410011061368805936
11524674 6 17203609302734527319
11719270 70 17918274233910860822
11796584 16 18342740728326935918
12107183 9 18265048029526717768
12166972 35 18408888459733888341
12236239 1 18260547840187801833
13073987 5 18337672026555624112
13167372 99 18413390921126009513
13167823 11 18337951294156722714
13533116 47 18272370893169173432
13785724 45 18052822451745767606
14251764 18 18407758149380169404
14341114 176 18408889567787464765
14933364 13 18409450301479765045
15183329 4 18412267216131655664
15196674 1 18410574023964555268
15419008 42 17985264062728507932
1577012 14 18411701006388130197
17844677 252 18410580604012877240
1813 80 16805320020060247772
19611394 137 17969798552328489371
19958102 18 18334006203365309639
20281389 69 18408604777502151049
21065198 57 18267021833187020248
21236236 1 18340768230515558293
21267235 1 18408327709256675763
21279426 13 18411700963184931508
21315763 28 18411135848842409791
21315764 268 18337104661344895221
21859007 373 17896311416485058389
23536379 177 18410855477339907081
23559900 14 18343014501825515224
23569943 247 17387117685777761874
2838139 119 18411695462075942261
3004659 81 18408887335200659632
335352 9 18410856546818431973
350125 39 18336544932800873353
3545911 37 18410293601666334261
4073 2 18042126625667576642
4197921 191 18335706078069382029
4214541 1 18410856576830455108
5104073 3 18411138069182078184
559249 180 18411416198395322539
59755656 215 18338518542902922182
59755656 520 17168144542469588787
6299153 45 18339646616305842449
9965369 4 18410572864507982401
9995097 60 18413389830404458086
9996256 80 18411981390627471591

> <PUBCHEM_SHAPE_MULTIPOLES>
491.19
20.43
2.75
0.65
5.07
0.04
0
1.59
0
0.16
0
0.25
-0.1
0

> <PUBCHEM_SHAPE_SELFOVERLAP>
1061.69

> <PUBCHEM_SHAPE_VOLUME>
272.4

> <PUBCHEM_COORDINATE_TYPE>
2
5
10

$$$$
49830686
  -OEChem-05102415033D

 35 37  0     0  0  0  0  0  0999 V2000
   -5.3820    3.0184    0.0007 F   0  0  0  0  0  0  0  0  0  0  0  0
    6.6968   -0.7561    0.0017 F   0  0  0  0  0  0  0  0  0  0  0  0
    5.1330   -1.8093    1.0848 F   0  0  0  0  0  0  0  0  0  0  0  0
    5.1349   -1.8095   -1.0839 F   0  0  0  0  0  0  0  0  0  0  0  0
    0.7180   -1.2168   -0.0006 O   0  0  0  0  0  0  0  0  0  0  0  0
   -1.1009    0.2584   -0.0002 N   0  0  0  0  0  0  0  0  0  0  0  0
   -4.3380   -2.3890   -0.0002 N   0  0  0  0  0  0  0  0  0  0  0  0
    1.0457    1.0987   -0.0005 N   0  0  0  0  0  0  0  0  0  0  0  0
    3.1940    0.0794   -0.0008 N   0  0  0  0  0  0  0  0  0  0  0  0
   -3.5212   -0.1219    0.0001 C   0  0  0  0  0  0  0  0  0  0  0  0
   -2.2048   -0.6026    0.0000 C   0  0  0  0  0  0  0  0  0  0  0  0
   -4.5719   -1.0631    0.0001 C   0  0  0  0  0  0  0  0  0  0  0  0
   -3.8019    1.2551    0.0001 C   0  0  0  0  0  0  0  0  0  0  0  0
   -1.9606   -1.9683   -0.0002 C   0  0  0  0  0  0  0  0  0  0  0  0
   -5.8794   -0.5850    0.0002 C   0  0  0  0  0  0  0  0  0  0  0  0
   -5.1189    1.7054    0.0002 C   0  0  0  0  0  0  0  0  0  0  0  0
   -6.1587    0.7839    0.0003 C   0  0  0  0  0  0  0  0  0  0  0  0
   -3.0530   -2.8118   -0.0003 C   0  0  0  0  0  0  0  0  0  0  0  0
    2.4561    1.2120   -0.0007 C   0  0  0  0  0  0  0  0  0  0  0  0
    0.2729   -0.0735   -0.0005 C   0  0  0  0  0  0  0  0  0  0  0  0
    4.5367    0.2374   -0.0005 C   0  0  0  0  0  0  0  0  0  0  0  0
    2.9946    2.4888   -0.0001 C   0  0  0  0  0  0  0  0  0  0  0  0
    5.1726    1.4684   -0.0002 C   0  0  0  0  0  0  0  0  0  0  0  0
    4.3796    2.6107    0.0000 C   0  0  0  0  0  0  0  0  0  0  0  0
    5.3561   -1.0098    0.0005 C   0  0  0  0  0  0  0  0  0  0  0  0
   -3.0307    2.0181    0.0002 H   0  0  0  0  0  0  0  0  0  0  0  0
   -1.2897    1.2535   -0.0001 H   0  0  0  0  0  0  0  0  0  0  0  0
   -0.9971   -2.4497   -0.0003 H   0  0  0  0  0  0  0  0  0  0  0  0
   -6.7118   -1.2863    0.0002 H   0  0  0  0  0  0  0  0  0  0  0  0
   -7.1892    1.1267    0.0005 H   0  0  0  0  0  0  0  0  0  0  0  0
   -2.9252   -3.8895   -0.0004 H   0  0  0  0  0  0  0  0  0  0  0  0
    0.5366    1.9790   -0.0002 H   0  0  0  0  0  0  0  0  0  0  0  0
    2.3712    3.3769    0.0002 H   0  0  0  0  0  0  0  0  0  0  0  0
    6.2529    1.5629    0.0001 H   0  0  0  0  0  0  0  0  0  0  0  0
    4.8402    3.5940    0.0004 H   0  0  0  0  0  0  0  0  0  0  0  0
  1 16  1  0  0  0  0
  2 25  1  0  0  0  0
  3 25  1  0  0  0  0
  4 25  1  0  0  0  0
  5 20  2  0  0  0  0
  6 11  1  0  0  0  0
  6 20  1  0  0  0  0
  6 27  1  0  0  0  0
  7 12  2  0  0  0  0
  7 18  1  0  0  0  0
  8 19  1  0  0  0  0
  8 20  1  0  0  0  0
  8 32  1  0  0  0  0
  9 19  1  0  0  0  0
  9 21  2  0  0  0  0
 10 11  2  0  0  0  0
 10 12  1  0  0  0  0
 10 13  1  0  0  0  0
 11 14  1  0  0  0  0
 12 15  1  0  0  0  0
 13 16  2  0  0  0  0
 13 26  1  0  0  0  0
 14 18  2  0  0  0  0
 14 28  1  0  0  0  0
 15 17  2  0  0  0  0
 15 29  1  0  0  0  0
 16 17  1  0  0  0  0
 17 30  1  0  0  0  0
 18 31  1  0  0  0  0
 19 22  2  0  0  0  0
 21 23  1  0  0  0  0
 21 25  1  0  0  0  0
 22 24  1  0  0  0  0
 22 33  1  0  0  0  0
 23 24  2  0  0  0  0
 23 34  1  0  0  0  0
 24 35  1  0  0  0  0
M  END
> <PUBCHEM_COMPOUND_CID>
49830686

> <PUBCHEM_CONFORMER_RMSD>
0.8

> <PUBCHEM_CONFORMER_DIVERSEORDER>
1
23
18
6
19
9
26
13
7
10
8
4
25
14
11
17
5
3
12
20
24
2
16
15
21
22

> <PUBCHEM_MMFF94_PARTIAL_CHARGES>
34
1 -0.19
11 0.12
12 0.31
13 -0.15
14 -0.15
15 -0.15
16 0.19
17 -0.15
18 0.16
19 0.43
2 -0.34
20 0.69
21 0.17
22 -0.15
23 -0.15
24 -0.15
25 1.16
26 0.15
27 0.37
28 0.15
29 0.15
3 -0.34
30 0.15
31 0.15
32 0.37
33 0.15
34 0.15
35 0.15
4 -0.34
5 -0.57
6 -0.55
7 -0.62
8 -0.55
9 -0.62

> <PUBCHEM_EFFECTIVE_ROTOR_COUNT>
5

> <PUBCHEM_PHARMACOPHORE_FEATURES>
8
1 5 acceptor
1 6 donor
1 7 acceptor
1 8 donor
1 9 acceptor
6 10 12 13 15 16 17 rings
6 7 10 11 12 14 18 rings
6 9 19 21 22 23 24 rings

> <PUBCHEM_HEAVY_ATOM_COUNT>
25

> <PUBCHEM_ATOM_DEF_STEREO_COUNT>
0

> <PUBCHEM_ATOM_UDEF_STEREO_COUNT>
0

> <PUBCHEM_BOND_DEF_STEREO_COUNT>
0

> <PUBCHEM_BOND_UDEF_STEREO_COUNT>
0

> <PUBCHEM_ISOTOPIC_ATOM_COUNT>
0

> <PUBCHEM_COMPONENT_COUNT>
1

> <PUBCHEM_CACTVS_TAUTO_COUNT>
11

> <PUBCHEM_CONFORMER_ID>
02F85B1E00000001

> <PUBCHEM_MMFF94_ENERGY>
69.3251

> <PUBCHEM_FEATURE_SELFOVERLAP>
40.681

> <PUBCHEM_SHAPE_FINGERPRINT>
10595046 47 18265333000332591284
10835480 77 18342733070084009144
11405975 8 18409447015961308304
11796584 16 18342740719684201854
12107183 9 18264483979797872632
12166972 35 18408608088748382601
13073987 5 18337107976942869016
13167823 11 18337669827522117754
13533116 47 18131071541497634544
13785724 45 18052822447340049998
14341114 176 18336550507578941121
14420673 8 18336267851312534042
14904525 67 15502091959894446949
14933364 13 18409451401070468660
15042514 8 18192153922638113611
15183329 4 18410856551049855019
15196674 1 18410855507378089792
15250474 111 18268697480413522110
15419008 42 17985828129515753549
17844677 252 18338242655699723392
1813 80 16877656898578203412
19611394 137 17969799639055214697
19958102 18 18334568058254999295
20281389 69 18408323289661760937
20645477 70 18411702119285462502
21065198 57 18266740357967619016
21236236 1 18340768239037031575
21267235 1 18336271219067644875
21279426 13 18412265003986257948
21315763 129 18412545431201750031
21315764 268 18337949095133954597
23522609 53 17823723913603497940
23536379 177 18410292518801819448
23559900 14 18343297072034697618
23569943 247 17096913690491046346
2838139 119 18411976937015664661
3004659 81 18408887339442840408
335352 9 18410573972287739645
4073 2 18042126621351549322
4197921 191 18335425707226275109
4214541 1 18410856585662976325
5104073 3 18411138077592567272
5283173 99 18412263934845512209
531348 171 18202280316975661055
559249 180 18411416194095119515
59755656 215 18340208483806205182
59755656 520 17167864167046658499
633830 44 17749387130560054688
90127 26 18261118503491069464
9965369 4 18410291393889464617
9995097 60 18413952780204885622
9996256 80 18411981399338829399

> <PUBCHEM_SHAPE_MULTIPOLES>
459.6
17.61
2.95
0.65
6.04
0.33
0
1.24
0
-0.67
0
0.3
-0.12
0

> <PUBCHEM_SHAPE_SELFOVERLAP>
1013.632

> <PUBCHEM_SHAPE_VOLUME>
245.7

> <PUBCHEM_COORDINATE_TYPE>
2
5
10

$$$$
