56600346
  -OEChem-05102415103D

 60 64  0     1  0  0  0  0  0999 V2000
   -2.6474   -0.4440    0.2897 S   0  0  0  0  0  0  0  0  0  0  0  0
   -2.0707    4.1314   -0.5382 O   0  0  0  0  0  0  0  0  0  0  0  0
    5.2109    1.4895   -0.2794 O   0  0  0  0  0  0  0  0  0  0  0  0
   -6.5986   -1.3697    0.4481 N   0  0  2  0  0  0  0  0  0  0  0  0
   -3.9035    1.7570   -0.2695 N   0  0  0  0  0  0  0  0  0  0  0  0
   -1.5065    1.8963   -0.0451 N   0  0  0  0  0  0  0  0  0  0  0  0
    3.4522    1.2223    1.2089 N   0  0  0  0  0  0  0  0  0  0  0  0
    0.5001   -5.3291   -0.7766 N   0  0  0  0  0  0  0  0  0  0  0  0
   -7.0448   -0.3560   -0.5342 C   0  0  0  0  0  0  0  0  0  0  0  0
   -6.2917    0.9821   -0.3534 C   0  0  0  0  0  0  0  0  0  0  0  0
   -5.1733   -1.7329    0.2546 C   0  0  0  0  0  0  0  0  0  0  0  0
   -4.8342    0.7470   -0.1746 C   0  0  0  0  0  0  0  0  0  0  0  0
   -4.3374   -0.5030    0.1276 C   0  0  0  0  0  0  0  0  0  0  0  0
   -7.4390   -2.5643    0.3775 C   0  0  0  0  0  0  0  0  0  0  0  0
   -2.7112    1.2444   -0.0449 C   0  0  0  0  0  0  0  0  0  0  0  0
   -1.2387    3.2673   -0.2832 C   0  0  0  0  0  0  0  0  0  0  0  0
    0.1849    3.6841   -0.1861 C   0  0  0  0  0  0  0  0  0  0  0  0
    2.4015    3.3653    0.7210 C   0  0  0  0  0  0  0  0  0  0  0  0
    1.0658    2.9737    0.6294 C   0  0  0  0  0  0  0  0  0  0  0  0
    3.3434    2.6067    1.5936 C   0  0  0  0  0  0  0  0  0  0  0  0
    0.6397    4.7864   -0.9100 C   0  0  0  0  0  0  0  0  0  0  0  0
    2.8563    4.4675   -0.0030 C   0  0  0  0  0  0  0  0  0  0  0  0
    1.9753    5.1783   -0.8183 C   0  0  0  0  0  0  0  0  0  0  0  0
    4.3573   -0.6789   -0.0190 C   0  0  0  0  0  0  0  0  0  0  0  0
    4.3915    0.7737    0.2905 C   0  0  0  0  0  0  0  0  0  0  0  0
    3.1342   -2.7563   -0.1799 C   0  0  0  0  0  0  0  0  0  0  0  0
    3.1656   -1.3923    0.1102 C   0  0  0  0  0  0  0  0  0  0  0  0
    5.5177   -1.3296   -0.4383 C   0  0  0  0  0  0  0  0  0  0  0  0
    1.8980   -3.4963   -0.0473 C   0  0  0  0  0  0  0  0  0  0  0  0
    4.2945   -3.4070   -0.5994 C   0  0  0  0  0  0  0  0  0  0  0  0
    5.4862   -2.6937   -0.7288 C   0  0  0  0  0  0  0  0  0  0  0  0
    0.9384   -3.1271    0.8888 C   0  0  0  0  0  0  0  0  0  0  0  0
    1.6330   -4.5950   -0.8489 C   0  0  0  0  0  0  0  0  0  0  0  0
   -0.2402   -3.8577    0.9931 C   0  0  0  0  0  0  0  0  0  0  0  0
   -0.4095   -4.9401    0.1450 C   0  0  0  0  0  0  0  0  0  0  0  0
   -8.1170   -0.1575   -0.4153 H   0  0  0  0  0  0  0  0  0  0  0  0
   -6.8954   -0.7299   -1.5565 H   0  0  0  0  0  0  0  0  0  0  0  0
   -6.6744    1.5018    0.5334 H   0  0  0  0  0  0  0  0  0  0  0  0
   -6.4703    1.6264   -1.2210 H   0  0  0  0  0  0  0  0  0  0  0  0
   -4.8347   -2.3266    1.1120 H   0  0  0  0  0  0  0  0  0  0  0  0
   -5.0475   -2.3392   -0.6520 H   0  0  0  0  0  0  0  0  0  0  0  0
   -8.4833   -2.3126    0.5930 H   0  0  0  0  0  0  0  0  0  0  0  0
   -7.1304   -3.2967    1.1317 H   0  0  0  0  0  0  0  0  0  0  0  0
   -7.3957   -3.0429   -0.6074 H   0  0  0  0  0  0  0  0  0  0  0  0
   -0.7213    1.2742    0.1229 H   0  0  0  0  0  0  0  0  0  0  0  0
    0.7306    2.1352    1.2336 H   0  0  0  0  0  0  0  0  0  0  0  0
    4.3438    3.0547    1.5848 H   0  0  0  0  0  0  0  0  0  0  0  0
    2.9878    2.6357    2.6299 H   0  0  0  0  0  0  0  0  0  0  0  0
   -0.0292    5.3501   -1.5549 H   0  0  0  0  0  0  0  0  0  0  0  0
    3.8941    4.7843    0.0571 H   0  0  0  0  0  0  0  0  0  0  0  0
    2.3298    6.0357   -1.3829 H   0  0  0  0  0  0  0  0  0  0  0  0
    2.8352    0.5689    1.6795 H   0  0  0  0  0  0  0  0  0  0  0  0
    2.2496   -0.8708    0.3722 H   0  0  0  0  0  0  0  0  0  0  0  0
    6.4569   -0.7922   -0.5392 H   0  0  0  0  0  0  0  0  0  0  0  0
    4.3222   -4.4727   -0.8098 H   0  0  0  0  0  0  0  0  0  0  0  0
    6.3916   -3.2014   -1.0485 H   0  0  0  0  0  0  0  0  0  0  0  0
    1.0791   -2.2959    1.5741 H   0  0  0  0  0  0  0  0  0  0  0  0
    2.3113   -4.9377   -1.6240 H   0  0  0  0  0  0  0  0  0  0  0  0
   -0.9999   -3.5923    1.7195 H   0  0  0  0  0  0  0  0  0  0  0  0
   -1.3106   -5.5431    0.1875 H   0  0  0  0  0  0  0  0  0  0  0  0
  1 13  1  0  0  0  0
  1 15  1  0  0  0  0
  2 16  2  0  0  0  0
  3 25  2  0  0  0  0
  4  9  1  0  0  0  0
  4 11  1  0  0  0  0
  4 14  1  0  0  0  0
  5 12  1  0  0  0  0
  5 15  2  0  0  0  0
  6 15  1  0  0  0  0
  6 16  1  0  0  0  0
  6 45  1  0  0  0  0
  7 20  1  0  0  0  0
  7 25  1  0  0  0  0
  7 52  1  0  0  0  0
  8 33  1  0  0  0  0
  8 35  2  0  0  0  0
  9 10  1  0  0  0  0
  9 36  1  0  0  0  0
  9 37  1  0  0  0  0
 10 12  1  0  0  0  0
 10 38  1  0  0  0  0
 10 39  1  0  0  0  0
 11 13  1  0  0  0  0
 11 40  1  0  0  0  0
 11 41  1  0  0  0  0
 12 13  2  0  0  0  0
 14 42  1  0  0  0  0
 14 43  1  0  0  0  0
 14 44  1  0  0  0  0
 16 17  1  0  0  0  0
 17 19  1  0  0  0  0
 17 21  2  0  0  0  0
 18 19  2  0  0  0  0
 18 20  1  0  0  0  0
 18 22  1  0  0  0  0
 19 46  1  0  0  0  0
 20 47  1  0  0  0  0
 20 48  1  0  0  0  0
 21 23  1  0  0  0  0
 21 49  1  0  0  0  0
 22 23  2  0  0  0  0
 22 50  1  0  0  0  0
 23 51  1  0  0  0  0
 24 25  1  0  0  0  0
 24 27  1  0  0  0  0
 24 28  2  0  0  0  0
 26 27  2  0  0  0  0
 26 29  1  0  0  0  0
 26 30  1  0  0  0  0
 27 53  1  0  0  0  0
 28 31  1  0  0  0  0
 28 54  1  0  0  0  0
 29 32  1  0  0  0  0
 29 33  2  0  0  0  0
 30 31  2  0  0  0  0
 30 55  1  0  0  0  0
 31 56  1  0  0  0  0
 32 34  2  0  0  0  0
 32 57  1  0  0  0  0
 33 58  1  0  0  0  0
 34 35  1  0  0  0  0
 34 59  1  0  0  0  0
 35 60  1  0  0  0  0
M  END
> <PUBCHEM_COMPOUND_CID>
56600346

> <PUBCHEM_CONFORMER_RMSD>
1.4

> <PUBCHEM_CONFORMER_DIVERSEORDER>
1
16
28
112
22
95
103
56
80
36
94
132
96
74
129
99
31
107
131
13
89
168
34
59
92
139
121
40
113
170
65
79
164
43
55
109
136
156
169
44
100
159
147
46
137
52
158
45
106
105
71
133
38
83
24
10
47
81
162
35
110
78
152
77
98
6
15
149
39
163
54
23
37
114
72
69
151
128
123
42
20
84
119
41
166
63
122
117
7
87
125
116
64
82
118
70
8
111
57
144
25
49
91
67
143
120
73
58
50
76
141
135
86
115
126
19
32
61
101
142
155
165
130
18
124
26
140
108
75
157
68
93
60
153
88
167
102
11
29
104
66
17
53
27
62
146
154
48
14
145
134
160
97
5
161
51
3
12
148
30
138
85
33
127
150
21
4
90
2
9

> <PUBCHEM_MMFF94_PARTIAL_CHARGES>
47
1 -0.08
10 0.18
11 0.45
12 0.05
13 -0.14
14 0.27
15 0.44
16 0.54
17 0.09
18 -0.14
19 -0.15
2 -0.57
20 0.44
21 -0.15
22 -0.15
23 -0.15
24 0.09
25 0.54
27 -0.15
28 -0.15
3 -0.57
30 -0.15
31 -0.15
32 -0.15
33 0.16
34 -0.15
35 0.16
4 -0.81
45 0.37
46 0.15
49 0.15
5 -0.57
50 0.15
51 0.15
52 0.37
53 0.15
54 0.15
55 0.15
56 0.15
57 0.15
58 0.15
59 0.15
6 -0.49
60 0.15
7 -0.73
8 -0.62
9 0.27

> <PUBCHEM_EFFECTIVE_ROTOR_COUNT>
8.8

> <PUBCHEM_PHARMACOPHORE_FEATURES>
11
1 2 acceptor
1 3 acceptor
1 4 cation
1 6 donor
1 7 donor
1 8 acceptor
5 1 5 12 13 15 rings
6 17 18 19 21 22 23 rings
6 24 26 27 28 30 31 rings
6 4 9 10 11 12 13 rings
6 8 29 32 33 34 35 rings

> <PUBCHEM_HEAVY_ATOM_COUNT>
35

> <PUBCHEM_ATOM_DEF_STEREO_COUNT>
0

> <PUBCHEM_ATOM_UDEF_STEREO_COUNT>
0

> <PUBCHEM_BOND_DEF_STEREO_COUNT>
0

> <PUBCHEM_BOND_UDEF_STEREO_COUNT>
0

> <PUBCHEM_ISOTOPIC_ATOM_COUNT>
0

> <PUBCHEM_COMPONENT_COUNT>
1

> <PUBCHEM_CACTVS_TAUTO_COUNT>
6

> <PUBCHEM_CONFORMER_ID>
035FA71A00000001

> <PUBCHEM_MMFF94_ENERGY>
96.6342

> <PUBCHEM_FEATURE_SELFOVERLAP>
55.893

> <PUBCHEM_SHAPE_FINGERPRINT>
10049733 57 18117011077265702043
10075450 59 17986409793338690927
10316853 100 18337110180282294834
10864689 126 18409730621342544215
117089 54 18341619148845469924
11828042 200 18122924036131228614
13383661 66 18342177730690706952
1361 2 18338795731697248921
13989917 61 18266461082404937427
14143925 63 18410582785750866862
14725015 67 18265039263815231266
15320467 1 18410575119075857182
15400415 2 17762058040373253261
15538507 32 18338244850776398966
15721738 15 17180497327726485221
15927050 60 17907020925483859710
19301676 85 17689429383388155013
19611394 137 18115325465695176307
20156587 191 18261384492161259853
20764821 26 17833267897959842052
21133410 58 18263066847371316055
21133410 62 18188192256633793639
21792965 11 17469324733990735367
23559900 14 18409161117770085129
325973 47 18337676420254641162
3882209 13 17181051494108145835
5047190 2 18058433465450374927
5309563 4 18339079276642649532
5776283 40 18266188395522054228
6176135 31 18196083572013938793
636783 129 18269296663686752427
636783 205 17615412888984835267
6422251 121 18266173937986538687
86090 222 18412259536730117776
9831232 110 18336263526850036621

> <PUBCHEM_SHAPE_MULTIPOLES>
687.49
15.08
9.3
0.95
24.35
0.89
-0.14
-7.21
0.75
-7.53
1.5
-0.53
0.12
1.95

> <PUBCHEM_SHAPE_SELFOVERLAP>
1493.189

> <PUBCHEM_SHAPE_VOLUME>
377.7

> <PUBCHEM_COORDINATE_TYPE>
2
5
10

$$$$
56600344
  -OEChem-05102415103D

 58 62  0     1  0  0  0  0  0999 V2000
   -3.8763   -1.5319    0.5082 S   0  0  0  0  0  0  0  0  0  0  0  0
   -3.9921    2.8616   -1.1152 O   0  0  0  0  0  0  0  0  0  0  0  0
    1.3609   -0.0248    1.6296 O   0  0  0  0  0  0  0  0  0  0  0  0
   -7.5810   -3.1909    0.3764 N   0  0  2  0  0  0  0  0  0  0  0  0
   -5.3990    0.2473   -0.6100 N   0  0  0  0  0  0  0  0  0  0  0  0
   -3.1263    0.8997   -0.1362 N   0  0  0  0  0  0  0  0  0  0  0  0
    2.3453    2.0652    1.4224 N   0  0  0  0  0  0  0  0  0  0  0  0
    7.0873   -1.7663   -0.4891 N   0  0  0  0  0  0  0  0  0  0  0  0
    9.0227   -2.0195   -1.5482 N   0  0  0  0  0  0  0  0  0  0  0  0
   -8.0431   -2.4663   -0.8291 C   0  0  0  0  0  0  0  0  0  0  0  0
   -7.5731   -0.9933   -0.8231 C   0  0  0  0  0  0  0  0  0  0  0  0
   -6.1016   -3.2881    0.4260 C   0  0  0  0  0  0  0  0  0  0  0  0
   -6.1416   -0.8984   -0.4318 C   0  0  0  0  0  0  0  0  0  0  0  0
   -5.4850   -1.9548    0.1629 C   0  0  0  0  0  0  0  0  0  0  0  0
   -8.1781   -4.5242    0.4397 C   0  0  0  0  0  0  0  0  0  0  0  0
   -4.1837    0.0290   -0.1517 C   0  0  0  0  0  0  0  0  0  0  0  0
   -3.0702    2.2369   -0.6017 C   0  0  0  0  0  0  0  0  0  0  0  0
   -1.7735    2.9408   -0.4202 C   0  0  0  0  0  0  0  0  0  0  0  0
    0.3018    3.2271    0.7829 C   0  0  0  0  0  0  0  0  0  0  0  0
   -0.9162    2.5685    0.6152 C   0  0  0  0  0  0  0  0  0  0  0  0
    1.2185    2.8310    1.8911 C   0  0  0  0  0  0  0  0  0  0  0  0
   -1.4129    3.9719   -1.2878 C   0  0  0  0  0  0  0  0  0  0  0  0
    0.6625    4.2582   -0.0845 C   0  0  0  0  0  0  0  0  0  0  0  0
   -0.1950    4.6305   -1.1200 C   0  0  0  0  0  0  0  0  0  0  0  0
    3.5725    0.0375    0.8531 C   0  0  0  0  0  0  0  0  0  0  0  0
    2.3209    0.6802    1.3297 C   0  0  0  0  0  0  0  0  0  0  0  0
    5.9226   -1.1688   -0.0436 C   0  0  0  0  0  0  0  0  0  0  0  0
    3.8748   -1.2698    1.2343 C   0  0  0  0  0  0  0  0  0  0  0  0
    4.4453    0.7415    0.0235 C   0  0  0  0  0  0  0  0  0  0  0  0
    5.0499   -1.8730    0.7859 C   0  0  0  0  0  0  0  0  0  0  0  0
    5.6204    0.1385   -0.4249 C   0  0  0  0  0  0  0  0  0  0  0  0
    7.5098   -3.0329   -0.1988 C   0  0  0  0  0  0  0  0  0  0  0  0
    8.0276   -1.1966   -1.3018 C   0  0  0  0  0  0  0  0  0  0  0  0
    8.7060   -3.1660   -0.8634 C   0  0  0  0  0  0  0  0  0  0  0  0
   -9.1390   -2.4697   -0.8779 H   0  0  0  0  0  0  0  0  0  0  0  0
   -7.6764   -2.9684   -1.7348 H   0  0  0  0  0  0  0  0  0  0  0  0
   -8.1718   -0.4198   -0.1051 H   0  0  0  0  0  0  0  0  0  0  0  0
   -7.7276   -0.5525   -1.8139 H   0  0  0  0  0  0  0  0  0  0  0  0
   -5.7990   -3.6497    1.4159 H   0  0  0  0  0  0  0  0  0  0  0  0
   -5.7348   -4.0001   -0.3249 H   0  0  0  0  0  0  0  0  0  0  0  0
   -9.2708   -4.4544    0.4779 H   0  0  0  0  0  0  0  0  0  0  0  0
   -7.8645   -5.0431    1.3524 H   0  0  0  0  0  0  0  0  0  0  0  0
   -7.9018   -5.1424   -0.4220 H   0  0  0  0  0  0  0  0  0  0  0  0
   -2.2791    0.4847    0.2402 H   0  0  0  0  0  0  0  0  0  0  0  0
   -1.1857    1.7909    1.3242 H   0  0  0  0  0  0  0  0  0  0  0  0
    1.6113    3.7252    2.3892 H   0  0  0  0  0  0  0  0  0  0  0  0
    0.6861    2.2555    2.6576 H   0  0  0  0  0  0  0  0  0  0  0  0
   -2.0641    4.2731   -2.1041 H   0  0  0  0  0  0  0  0  0  0  0  0
    1.6089    4.7787    0.0360 H   0  0  0  0  0  0  0  0  0  0  0  0
    3.1900    2.5844    1.2093 H   0  0  0  0  0  0  0  0  0  0  0  0
    0.0867    5.4324   -1.7962 H   0  0  0  0  0  0  0  0  0  0  0  0
    3.2092   -1.8326    1.8835 H   0  0  0  0  0  0  0  0  0  0  0  0
    4.2321    1.7483   -0.3233 H   0  0  0  0  0  0  0  0  0  0  0  0
    5.2306   -2.8901    1.1164 H   0  0  0  0  0  0  0  0  0  0  0  0
    6.2543    0.7338   -1.0732 H   0  0  0  0  0  0  0  0  0  0  0  0
    6.9811   -3.7393    0.4244 H   0  0  0  0  0  0  0  0  0  0  0  0
    7.9776   -0.1940   -1.7028 H   0  0  0  0  0  0  0  0  0  0  0  0
    9.3555   -4.0290   -0.8838 H   0  0  0  0  0  0  0  0  0  0  0  0
  1 14  1  0  0  0  0
  1 16  1  0  0  0  0
  2 17  2  0  0  0  0
  3 26  2  0  0  0  0
  4 10  1  0  0  0  0
  4 12  1  0  0  0  0
  4 15  1  0  0  0  0
  5 13  1  0  0  0  0
  5 16  2  0  0  0  0
  6 16  1  0  0  0  0
  6 17  1  0  0  0  0
  6 44  1  0  0  0  0
  7 21  1  0  0  0  0
  7 26  1  0  0  0  0
  7 50  1  0  0  0  0
  8 27  1  0  0  0  0
  8 32  1  0  0  0  0
  8 33  1  0  0  0  0
  9 33  2  0  0  0  0
  9 34  1  0  0  0  0
 10 11  1  0  0  0  0
 10 35  1  0  0  0  0
 10 36  1  0  0  0  0
 11 13  1  0  0  0  0
 11 37  1  0  0  0  0
 11 38  1  0  0  0  0
 12 14  1  0  0  0  0
 12 39  1  0  0  0  0
 12 40  1  0  0  0  0
 13 14  2  0  0  0  0
 15 41  1  0  0  0  0
 15 42  1  0  0  0  0
 15 43  1  0  0  0  0
 17 18  1  0  0  0  0
 18 20  1  0  0  0  0
 18 22  2  0  0  0  0
 19 20  2  0  0  0  0
 19 21  1  0  0  0  0
 19 23  1  0  0  0  0
 20 45  1  0  0  0  0
 21 46  1  0  0  0  0
 21 47  1  0  0  0  0
 22 24  1  0  0  0  0
 22 48  1  0  0  0  0
 23 24  2  0  0  0  0
 23 49  1  0  0  0  0
 24 51  1  0  0  0  0
 25 26  1  0  0  0  0
 25 28  2  0  0  0  0
 25 29  1  0  0  0  0
 27 30  2  0  0  0  0
 27 31  1  0  0  0  0
 28 30  1  0  0  0  0
 28 52  1  0  0  0  0
 29 31  2  0  0  0  0
 29 53  1  0  0  0  0
 30 54  1  0  0  0  0
 31 55  1  0  0  0  0
 32 34  2  0  0  0  0
 32 56  1  0  0  0  0
 33 57  1  0  0  0  0
 34 58  1  0  0  0  0
M  END
> <PUBCHEM_COMPOUND_CID>
56600344

> <PUBCHEM_CONFORMER_RMSD>
1

> <PUBCHEM_CONFORMER_DIVERSEORDER>
3
26
74
88
156
176
142
173
75
138
71
181
162
137
78
73
160
57
106
147
58
115
97
72
157
43
114
50
77
182
10
4
111
64
116
136
135
178
91
54
76
104
177
18
38
152
65
174
158
22
42
92
159
170
175
31
87
118
188
99
66
63
105
139
45
180
33
34
48
131
122
51
94
144
79
103
21
13
85
194
185
117
189
191
121
167
198
37
163
82
110
30
164
196
29
128
172
141
17
84
193
23
100
32
112
171
95
197
36
41
109
90
132
14
20
107
123
81
24
169
186
15
68
55
98
149
126
7
16
80
129
52
25
56
39
168
61
102
83
27
2
60
143
145
89
179
8
154
190
187
11
165
140
130
195
40
101
46
127
184
119
53
6
183
35
19
148
12
161
124
9
133
47
153
44
93
151
1
125
199
96
62
155
113
146
67
192
49
69
59
70
134
5
108
120
28
86
166
150

> <PUBCHEM_MMFF94_PARTIAL_CHARGES>
47
1 -0.08
10 0.27
11 0.18
12 0.45
13 0.05
14 -0.14
15 0.27
16 0.44
17 0.54
18 0.09
19 -0.14
2 -0.57
20 -0.15
21 0.44
22 -0.15
23 -0.15
24 -0.15
25 0.09
26 0.54
27 -0.02
28 -0.15
29 -0.15
3 -0.57
30 -0.15
31 -0.15
32 -0.3
33 0.04
34 0.08
4 -0.81
44 0.37
45 0.15
48 0.15
49 0.15
5 -0.57
50 0.37
51 0.15
52 0.15
53 0.15
54 0.15
55 0.15
56 0.15
57 0.15
58 0.15
6 -0.49
7 -0.73
8 0.33
9 -0.57

> <PUBCHEM_EFFECTIVE_ROTOR_COUNT>
8.8

> <PUBCHEM_PHARMACOPHORE_FEATURES>
11
1 2 acceptor
1 3 acceptor
1 4 cation
1 6 donor
1 7 donor
3 8 9 33 cation
5 1 5 13 14 16 rings
5 8 9 32 33 34 rings
6 18 19 20 22 23 24 rings
6 25 27 28 29 30 31 rings
6 4 10 11 12 13 14 rings

> <PUBCHEM_HEAVY_ATOM_COUNT>
34

> <PUBCHEM_ATOM_DEF_STEREO_COUNT>
0

> <PUBCHEM_ATOM_UDEF_STEREO_COUNT>
0

> <PUBCHEM_BOND_DEF_STEREO_COUNT>
0

> <PUBCHEM_BOND_UDEF_STEREO_COUNT>
0

> <PUBCHEM_ISOTOPIC_ATOM_COUNT>
0

> <PUBCHEM_COMPONENT_COUNT>
1

> <PUBCHEM_CACTVS_TAUTO_COUNT>
6

> <PUBCHEM_CONFORMER_ID>
035FA71800000003

> <PUBCHEM_MMFF94_ENERGY>
86.0736

> <PUBCHEM_FEATURE_SELFOVERLAP>
55.892

> <PUBCHEM_SHAPE_FINGERPRINT>
10280341 67 9007060145278000143
10554248 39 16299810621003301322
11411753 3 18269253747113234808
11621639 208 17538569111919296795
117089 54 18411139147250640647
11756154 67 18411419518647713607
11761917 116 18410856538951541030
11973864 48 16988852636780784398
12124843 1 17894909667850387319
12342043 65 18201991127884531896
12645989 146 18412544349018450879
12717326 120 18337377246741318442
13383661 66 18059867112669930462
1361 4 18195809562392599158
13673619 4 18131067121844554744
13690498 29 18187362082743116557
13785724 45 18263359347740273325
13989917 61 17901945567716895915
14040221 275 13829306987189456498
14340393 91 18187641406225723541
14931854 50 17895188891947398787
15152005 1 18341331171083766199
15152005 77 17988639692792290095
15392192 29 18336840719004156235
15510800 12 18343008991350975024
15773216 30 18266464402874158420
208703 8 18408600370580687404
20982279 24 17751087015379369427
21095086 4 18412545439908053843
21130935 74 18053383490844411267
21196832 93 18410857625678103682
21307412 95 18337377254893695053
21344244 246 18336550504102411548
21716022 299 18188217618432351837
21796203 349 16630519636324157560
21867126 195 18201431502573550702
22899556 105 18340221756157866820
255183 451 18336263548013636565
3862424 121 18409168835145555060
393628 179 12107792938509263590
397638 26 9799688195417316906
4330586 98 17968391142584303258
437795 150 18336827494077470663
44280117 145 18338520721454031332
44880168 125 17846486058797445663
484989 97 18343019965989149866
5372103 7 11169908385769974119
57816373 69 18055905744384546525
58260988 114 17917720041253545905
59398613 258 18267005320468031775
9980921 52 17628332069180424655

> <PUBCHEM_SHAPE_MULTIPOLES>
661.93
27.9
6.53
1.36
10.51
3.68
0.19
-48.63
-9.66
-5.08
-0.94
1.27
0.52
3.31

> <PUBCHEM_SHAPE_SELFOVERLAP>
1437.657

> <PUBCHEM_SHAPE_VOLUME>
364.3

> <PUBCHEM_COORDINATE_TYPE>
2
5
10

$$$$
88558463
  -OEChem-05102415103D

 58 62  0     1  0  0  0  0  0999 V2000
   -2.6454    0.6024   -0.2945 S   0  0  0  0  0  0  0  0  0  0  0  0
   -2.0872   -3.9832    0.4881 O   0  0  0  0  0  0  0  0  0  0  0  0
    5.2043   -1.3640    0.2799 O   0  0  0  0  0  0  0  0  0  0  0  0
   -6.5928    1.5435   -0.4561 N   0  0  2  0  0  0  0  0  0  0  0  0
   -3.9109   -1.5998    0.2380 N   0  0  0  0  0  0  0  0  0  0  0  0
   -1.5136   -1.7451    0.0199 N   0  0  0  0  0  0  0  0  0  0  0  0
    3.4514   -1.0755   -1.2112 N   0  0  0  0  0  0  0  0  0  0  0  0
   -0.2125    4.1095    0.0507 N   0  0  0  0  0  0  0  0  0  0  0  0
    0.3761    5.2818   -0.2416 N   0  0  0  0  0  0  0  0  0  0  0  0
   -7.0457    0.5213    0.5143 C   0  0  0  0  0  0  0  0  0  0  0  0
   -6.2967   -0.8176    0.3221 C   0  0  0  0  0  0  0  0  0  0  0  0
   -5.1670    1.8996   -0.2543 C   0  0  0  0  0  0  0  0  0  0  0  0
   -4.8378   -0.5856    0.1504 C   0  0  0  0  0  0  0  0  0  0  0  0
   -4.3357    0.6657   -0.1372 C   0  0  0  0  0  0  0  0  0  0  0  0
   -7.4294    2.7402   -0.3759 C   0  0  0  0  0  0  0  0  0  0  0  0
   -2.7161   -1.0890    0.0225 C   0  0  0  0  0  0  0  0  0  0  0  0
   -1.2513   -3.1194    0.2447 C   0  0  0  0  0  0  0  0  0  0  0  0
    0.1711   -3.5402    0.1479 C   0  0  0  0  0  0  0  0  0  0  0  0
    2.3917   -3.2197   -0.7487 C   0  0  0  0  0  0  0  0  0  0  0  0
    1.0571   -2.8245   -0.6575 C   0  0  0  0  0  0  0  0  0  0  0  0
    3.3390   -2.4554   -1.6104 C   0  0  0  0  0  0  0  0  0  0  0  0
    0.6197   -4.6514    0.8619 C   0  0  0  0  0  0  0  0  0  0  0  0
    2.8403   -4.3309   -0.0347 C   0  0  0  0  0  0  0  0  0  0  0  0
    1.9542   -5.0469    0.7704 C   0  0  0  0  0  0  0  0  0  0  0  0
    4.3590    0.8099    0.0391 C   0  0  0  0  0  0  0  0  0  0  0  0
    3.1420    2.8894    0.2186 C   0  0  0  0  0  0  0  0  0  0  0  0
    4.3892   -0.6396   -0.2852 C   0  0  0  0  0  0  0  0  0  0  0  0
    3.1701    1.5286   -0.0867 C   0  0  0  0  0  0  0  0  0  0  0  0
    1.9180    3.6294    0.0891 C   0  0  0  0  0  0  0  0  0  0  0  0
    5.5198    1.4520    0.4701 C   0  0  0  0  0  0  0  0  0  0  0  0
    4.3029    3.5315    0.6498 C   0  0  0  0  0  0  0  0  0  0  0  0
    5.4917    2.8128    0.7757 C   0  0  0  0  0  0  0  0  0  0  0  0
    0.6671    3.0878    0.2577 C   0  0  0  0  0  0  0  0  0  0  0  0
    1.6774    4.9823   -0.2168 C   0  0  0  0  0  0  0  0  0  0  0  0
   -8.1183    0.3278    0.3898 H   0  0  0  0  0  0  0  0  0  0  0  0
   -6.8985    0.8841    1.5408 H   0  0  0  0  0  0  0  0  0  0  0  0
   -6.6784   -1.3268   -0.5711 H   0  0  0  0  0  0  0  0  0  0  0  0
   -6.4803   -1.4701    1.1825 H   0  0  0  0  0  0  0  0  0  0  0  0
   -5.0420    2.4962    0.6589 H   0  0  0  0  0  0  0  0  0  0  0  0
   -4.8236    2.5008   -1.1045 H   0  0  0  0  0  0  0  0  0  0  0  0
   -8.4739    2.4944   -0.5973 H   0  0  0  0  0  0  0  0  0  0  0  0
   -7.1159    3.4792   -1.1216 H   0  0  0  0  0  0  0  0  0  0  0  0
   -7.3876    3.2084    0.6141 H   0  0  0  0  0  0  0  0  0  0  0  0
   -0.7258   -1.1240   -0.1391 H   0  0  0  0  0  0  0  0  0  0  0  0
    4.3379   -2.9070   -1.6031 H   0  0  0  0  0  0  0  0  0  0  0  0
    2.9867   -2.4726   -2.6482 H   0  0  0  0  0  0  0  0  0  0  0  0
    0.7267   -1.9786   -1.2540 H   0  0  0  0  0  0  0  0  0  0  0  0
   -0.0532   -5.2194    1.4988 H   0  0  0  0  0  0  0  0  0  0  0  0
    3.8772   -4.6506   -0.0947 H   0  0  0  0  0  0  0  0  0  0  0  0
    2.8397   -0.4156   -1.6793 H   0  0  0  0  0  0  0  0  0  0  0  0
    2.3040   -5.9113    1.3273 H   0  0  0  0  0  0  0  0  0  0  0  0
    2.2576    1.0306   -0.4018 H   0  0  0  0  0  0  0  0  0  0  0  0
    6.4565    0.9100    0.5704 H   0  0  0  0  0  0  0  0  0  0  0  0
    4.3068    4.5897    0.8994 H   0  0  0  0  0  0  0  0  0  0  0  0
    6.3956    3.3126    1.1117 H   0  0  0  0  0  0  0  0  0  0  0  0
    0.3165    2.0968    0.5103 H   0  0  0  0  0  0  0  0  0  0  0  0
    2.3901    5.7677   -0.4264 H   0  0  0  0  0  0  0  0  0  0  0  0
   -1.2234    4.0778    0.0950 H   0  0  0  0  0  0  0  0  0  0  0  0
  1 14  1  0  0  0  0
  1 16  1  0  0  0  0
  2 17  2  0  0  0  0
  3 27  2  0  0  0  0
  4 10  1  0  0  0  0
  4 12  1  0  0  0  0
  4 15  1  0  0  0  0
  5 13  1  0  0  0  0
  5 16  2  0  0  0  0
  6 16  1  0  0  0  0
  6 17  1  0  0  0  0
  6 44  1  0  0  0  0
  7 21  1  0  0  0  0
  7 27  1  0  0  0  0
  7 50  1  0  0  0  0
  8  9  1  0  0  0  0
  8 33  1  0  0  0  0
  8 58  1  0  0  0  0
  9 34  2  0  0  0  0
 10 11  1  0  0  0  0
 10 35  1  0  0  0  0
 10 36  1  0  0  0  0
 11 13  1  0  0  0  0
 11 37  1  0  0  0  0
 11 38  1  0  0  0  0
 12 14  1  0  0  0  0
 12 39  1  0  0  0  0
 12 40  1  0  0  0  0
 13 14  2  0  0  0  0
 15 41  1  0  0  0  0
 15 42  1  0  0  0  0
 15 43  1  0  0  0  0
 17 18  1  0  0  0  0
 18 20  1  0  0  0  0
 18 22  2  0  0  0  0
 19 20  2  0  0  0  0
 19 21  1  0  0  0  0
 19 23  1  0  0  0  0
 20 47  1  0  0  0  0
 21 45  1  0  0  0  0
 21 46  1  0  0  0  0
 22 24  1  0  0  0  0
 22 48  1  0  0  0  0
 23 24  2  0  0  0  0
 23 49  1  0  0  0  0
 24 51  1  0  0  0  0
 25 27  1  0  0  0  0
 25 28  1  0  0  0  0
 25 30  2  0  0  0  0
 26 28  2  0  0  0  0
 26 29  1  0  0  0  0
 26 31  1  0  0  0  0
 28 52  1  0  0  0  0
 29 33  2  0  0  0  0
 29 34  1  0  0  0  0
 30 32  1  0  0  0  0
 30 53  1  0  0  0  0
 31 32  2  0  0  0  0
 31 54  1  0  0  0  0
 32 55  1  0  0  0  0
 33 56  1  0  0  0  0
 34 57  1  0  0  0  0
M  END
> <PUBCHEM_COMPOUND_CID>
88558463

> <PUBCHEM_CONFORMER_RMSD>
1.2

> <PUBCHEM_CONFORMER_DIVERSEORDER>
1
33
71
101
226
191
140
150
43
87
238
108
49
188
112
192
57
147
181
91
128
36
203
39
199
212
169
100
143
83
31
195
119
24
200
21
149
158
205
182
167
64
176
157
81
133
51
152
106
89
239
67
88
111
14
110
48
7
115
63
103
27
229
151
72
125
166
17
46
38
196
124
68
5
161
44
194
113
137
107
69
187
105
214
148
122
171
15
86
159
75
227
50
11
218
114
96
235
138
73
237
204
154
213
139
220
163
35
116
104
47
79
66
55
175
80
121
146
215
19
185
74
60
131
183
211
156
78
10
98
228
54
221
94
32
34
232
129
28
184
37
224
99
130
222
208
202
186
153
120
41
180
198
9
90
136
193
217
223
42
56
170
134
23
190
97
70
234
230
18
82
231
123
26
155
92
6
85
8
201
29
145
172
233
118
219
95
178
30
20
168
225
117
84
174
22
45
25
173
197
61
102
210
207
165
76
40
236
16
162
77
144
53
109
216
93
177
4
164
59
189
135
160
52
141
62
65
126
209
13
58
3
179
2
127
206
142
12
132

> <PUBCHEM_MMFF94_PARTIAL_CHARGES>
47
1 -0.08
10 0.27
11 0.18
12 0.45
13 0.05
14 -0.14
15 0.27
16 0.44
17 0.54
18 0.09
19 -0.14
2 -0.57
20 -0.15
21 0.44
22 -0.15
23 -0.15
24 -0.15
25 0.09
26 0.05
27 0.54
28 -0.15
29 -0.05
3 -0.57
30 -0.15
31 -0.15
32 -0.15
33 -0.3
34 0.14
4 -0.81
44 0.37
47 0.15
48 0.15
49 0.15
5 -0.57
50 0.37
51 0.15
52 0.15
53 0.15
54 0.15
55 0.15
56 0.15
57 0.15
58 0.27
6 -0.49
7 -0.73
8 0.3
9 -0.71

> <PUBCHEM_EFFECTIVE_ROTOR_COUNT>
8.8

> <PUBCHEM_PHARMACOPHORE_FEATURES>
12
1 2 acceptor
1 3 acceptor
1 4 cation
1 6 donor
1 7 donor
1 8 donor
1 9 acceptor
5 1 5 13 14 16 rings
5 8 9 29 33 34 rings
6 18 19 20 22 23 24 rings
6 25 26 28 30 31 32 rings
6 4 10 11 12 13 14 rings

> <PUBCHEM_HEAVY_ATOM_COUNT>
34

> <PUBCHEM_ATOM_DEF_STEREO_COUNT>
0

> <PUBCHEM_ATOM_UDEF_STEREO_COUNT>
0

> <PUBCHEM_BOND_DEF_STEREO_COUNT>
0

> <PUBCHEM_BOND_UDEF_STEREO_COUNT>
0

> <PUBCHEM_ISOTOPIC_ATOM_COUNT>
0

> <PUBCHEM_COMPONENT_COUNT>
1

> <PUBCHEM_CACTVS_TAUTO_COUNT>
6

> <PUBCHEM_CONFORMER_ID>
05474B7F00000001

> <PUBCHEM_MMFF94_ENERGY>
79.1418

> <PUBCHEM_FEATURE_SELFOVERLAP>
60.968

> <PUBCHEM_SHAPE_FINGERPRINT>
10439779 11 18124303068297540304
10675989 125 18410855417579448264
10864689 126 18411146809556829638
11273773 38 18192719062555357708
11828042 226 18047747102199350525
12173638 102 16738890581443773381
12677640 9 17981044433960358639
12925494 130 18410291441303085355
13165053 371 18338240354684410245
1361 2 18411138064776522560
14117953 113 18413110580801191948
14725015 67 18339074866513031466
15274700 259 17388522819701470261
15320467 1 18410573955139804408
15351339 4 17973719178184629857
15400415 2 18194964269267572393
15444296 121 17902221545340942624
15483637 11 17906733957597404914
15773879 134 18341323501147342933
15890870 6 18335989718389605158
15927050 60 18341328998457489967
20580484 21 18339081463847665801
20715895 44 18413106173763865202
21133410 38 17916321462652697961
21344244 78 17538548920998697170
24204213 92 17630342831435425014
325973 47 17907579481896830760
354706 109 17910650379202959256
3882209 13 17470691470062797778
394071 54 18200887192539926619
5109719 28 18339089280323277851
5265222 85 18120945163417316821
6371009 1 17836630191480062214
99344 41 18412822512960004425

> <PUBCHEM_SHAPE_MULTIPOLES>
661.93
15.62
8.75
0.87
25.33
0.67
-0.13
-10.38
0.56
-7.91
0.91
-0.52
0.41
1.83

> <PUBCHEM_SHAPE_SELFOVERLAP>
1438.935

> <PUBCHEM_SHAPE_VOLUME>
364

> <PUBCHEM_COORDINATE_TYPE>
2
5
10

$$$$
84973037
  -OEChem-05102415103D

 59 63  0     1  0  0  0  0  0999 V2000
   -3.5864    1.5317    0.6548 S   0  0  0  0  0  0  0  0  0  0  0  0
   -4.3083   -2.7866   -1.0134 O   0  0  0  0  0  0  0  0  0  0  0  0
    3.4879   -3.4234    0.2458 O   0  0  0  0  0  0  0  0  0  0  0  0
   -6.8083    3.8928   -0.0792 N   0  0  2  0  0  0  0  0  0  0  0  0
   -5.3500   -0.0174   -0.4518 N   0  0  0  0  0  0  0  0  0  0  0  0
   -3.1743   -0.9685   -0.0307 N   0  0  0  0  0  0  0  0  0  0  0  0
    1.8367   -2.2817    1.4074 N   0  0  0  0  0  0  0  0  0  0  0  0
    5.8252    2.4684   -0.1255 N   0  0  0  0  0  0  0  0  0  0  0  0
    5.4001    3.6257    0.4002 N   0  0  0  0  0  0  0  0  0  0  0  0
    7.2716    3.9513   -0.7669 N   0  0  0  0  0  0  0  0  0  0  0  0
    6.2889    4.5290    0.0049 N   0  0  0  0  0  0  0  0  0  0  0  0
   -7.8245    2.8208    0.0219 C   0  0  0  0  0  0  0  0  0  0  0  0
   -7.3363    1.5097   -0.6363 C   0  0  0  0  0  0  0  0  0  0  0  0
   -5.5749    3.5536    0.6721 C   0  0  0  0  0  0  0  0  0  0  0  0
   -5.9343    1.2111   -0.2401 C   0  0  0  0  0  0  0  0  0  0  0  0
   -5.1294    2.1686    0.3397 C   0  0  0  0  0  0  0  0  0  0  0  0
   -7.3516    5.1671    0.3891 C   0  0  0  0  0  0  0  0  0  0  0  0
   -4.1083    0.0334   -0.0156 C   0  0  0  0  0  0  0  0  0  0  0  0
   -3.3029   -2.2951   -0.5117 C   0  0  0  0  0  0  0  0  0  0  0  0
   -2.0898   -3.1487   -0.4146 C   0  0  0  0  0  0  0  0  0  0  0  0
    0.0006   -3.6996    0.6641 C   0  0  0  0  0  0  0  0  0  0  0  0
   -1.1359   -2.8963    0.5714 C   0  0  0  0  0  0  0  0  0  0  0  0
    1.0222   -3.4292    1.7169 C   0  0  0  0  0  0  0  0  0  0  0  0
   -1.9072   -4.2045   -1.3078 C   0  0  0  0  0  0  0  0  0  0  0  0
    0.1833   -4.7553   -0.2290 C   0  0  0  0  0  0  0  0  0  0  0  0
   -0.7707   -5.0078   -1.2150 C   0  0  0  0  0  0  0  0  0  0  0  0
    3.7568   -1.1053    0.4741 C   0  0  0  0  0  0  0  0  0  0  0  0
    3.0193   -2.3772    0.6867 C   0  0  0  0  0  0  0  0  0  0  0  0
    5.1402    1.2839    0.0736 C   0  0  0  0  0  0  0  0  0  0  0  0
    5.1398   -1.1220    0.2926 C   0  0  0  0  0  0  0  0  0  0  0  0
    3.0656    0.1062    0.4550 C   0  0  0  0  0  0  0  0  0  0  0  0
    5.8315    0.0724    0.0924 C   0  0  0  0  0  0  0  0  0  0  0  0
    3.7573    1.3007    0.2549 C   0  0  0  0  0  0  0  0  0  0  0  0
    6.9651    2.6763   -0.8346 C   0  0  0  0  0  0  0  0  0  0  0  0
    7.7010    1.6161   -1.5453 C   0  0  0  0  0  0  0  0  0  0  0  0
   -8.7501    3.1258   -0.4816 H   0  0  0  0  0  0  0  0  0  0  0  0
   -8.0741    2.6357    1.0757 H   0  0  0  0  0  0  0  0  0  0  0  0
   -7.3787    1.6089   -1.7277 H   0  0  0  0  0  0  0  0  0  0  0  0
   -7.9973    0.6845   -0.3500 H   0  0  0  0  0  0  0  0  0  0  0  0
   -5.7505    3.6169    1.7540 H   0  0  0  0  0  0  0  0  0  0  0  0
   -4.7877    4.2709    0.4114 H   0  0  0  0  0  0  0  0  0  0  0  0
   -8.2201    5.4585   -0.2118 H   0  0  0  0  0  0  0  0  0  0  0  0
   -6.6100    5.9657    0.2771 H   0  0  0  0  0  0  0  0  0  0  0  0
   -7.6581    5.1246    1.4405 H   0  0  0  0  0  0  0  0  0  0  0  0
   -2.2721   -0.6698    0.3270 H   0  0  0  0  0  0  0  0  0  0  0  0
   -1.2656   -2.1036    1.3028 H   0  0  0  0  0  0  0  0  0  0  0  0
    0.5295   -3.2356    2.6769 H   0  0  0  0  0  0  0  0  0  0  0  0
    1.6707   -4.3003    1.8687 H   0  0  0  0  0  0  0  0  0  0  0  0
   -2.6355   -4.4155   -2.0863 H   0  0  0  0  0  0  0  0  0  0  0  0
    1.0648   -5.3882   -0.1702 H   0  0  0  0  0  0  0  0  0  0  0  0
   -0.6275   -5.8289   -1.9114 H   0  0  0  0  0  0  0  0  0  0  0  0
    1.5326   -1.3928    1.7894 H   0  0  0  0  0  0  0  0  0  0  0  0
    5.6981   -2.0539    0.3296 H   0  0  0  0  0  0  0  0  0  0  0  0
    1.9859    0.1613    0.5571 H   0  0  0  0  0  0  0  0  0  0  0  0
    6.9094   -0.0077    0.0588 H   0  0  0  0  0  0  0  0  0  0  0  0
    3.1895    2.2277    0.2286 H   0  0  0  0  0  0  0  0  0  0  0  0
    8.3270    2.0811   -2.3172 H   0  0  0  0  0  0  0  0  0  0  0  0
    7.0512    0.9172   -2.0789 H   0  0  0  0  0  0  0  0  0  0  0  0
    8.3915    1.0873   -0.8825 H   0  0  0  0  0  0  0  0  0  0  0  0
  1 16  1  0  0  0  0
  1 18  1  0  0  0  0
  2 19  2  0  0  0  0
  3 28  2  0  0  0  0
  4 12  1  0  0  0  0
  4 14  1  0  0  0  0
  4 17  1  0  0  0  0
  5 15  1  0  0  0  0
  5 18  2  0  0  0  0
  6 18  1  0  0  0  0
  6 19  1  0  0  0  0
  6 45  1  0  0  0  0
  7 23  1  0  0  0  0
  7 28  1  0  0  0  0
  7 52  1  0  0  0  0
  8  9  1  0  0  0  0
  8 29  1  0  0  0  0
  8 34  1  0  0  0  0
  9 11  2  0  0  0  0
 10 11  1  0  0  0  0
 10 34  2  0  0  0  0
 12 13  1  0  0  0  0
 12 36  1  0  0  0  0
 12 37  1  0  0  0  0
 13 15  1  0  0  0  0
 13 38  1  0  0  0  0
 13 39  1  0  0  0  0
 14 16  1  0  0  0  0
 14 40  1  0  0  0  0
 14 41  1  0  0  0  0
 15 16  2  0  0  0  0
 17 42  1  0  0  0  0
 17 43  1  0  0  0  0
 17 44  1  0  0  0  0
 19 20  1  0  0  0  0
 20 22  1  0  0  0  0
 20 24  2  0  0  0  0
 21 22  2  0  0  0  0
 21 23  1  0  0  0  0
 21 25  1  0  0  0  0
 22 46  1  0  0  0  0
 23 47  1  0  0  0  0
 23 48  1  0  0  0  0
 24 26  1  0  0  0  0
 24 49  1  0  0  0  0
 25 26  2  0  0  0  0
 25 50  1  0  0  0  0
 26 51  1  0  0  0  0
 27 28  1  0  0  0  0
 27 30  2  0  0  0  0
 27 31  1  0  0  0  0
 29 32  2  0  0  0  0
 29 33  1  0  0  0  0
 30 32  1  0  0  0  0
 30 53  1  0  0  0  0
 31 33  2  0  0  0  0
 31 54  1  0  0  0  0
 32 55  1  0  0  0  0
 33 56  1  0  0  0  0
 34 35  1  0  0  0  0
 35 57  1  0  0  0  0
 35 58  1  0  0  0  0
 35 59  1  0  0  0  0
M  END
> <PUBCHEM_COMPOUND_CID>
84973037

> <PUBCHEM_CONFORMER_RMSD>
1.2

> <PUBCHEM_CONFORMER_DIVERSEORDER>
1
136
92
100
24
37
67
97
115
33
141
7
15
52
130
74
25
8
103
41
65
113
32
91
28
99
122
135
102
23
95
17
104
9
116
42
90
43
71
4
57
34
53
128
55
14
61
78
96
93
64
58
123
18
73
127
118
63
79
31
85
36
40
48
124
80
83
69
39
139
44
138
68
21
13
126
51
106
19
94
27
35
59
86
82
50
137
66
112
10
16
140
26
11
134
142
121
117
143
132
109
107
101
108
49
62
120
70
76
77
131
84
119
81
54
105
133
72
110
88
89
75
56
3
98
38
46
60
114
129
22
30
2
47
87
20
45
12
29
6
125
111
5

> <PUBCHEM_MMFF94_PARTIAL_CHARGES>
44
1 -0.08
10 -0.34
12 0.27
13 0.18
14 0.45
15 0.05
16 -0.14
17 0.27
18 0.44
19 0.54
2 -0.57
20 0.09
21 -0.14
22 -0.15
23 0.44
24 -0.15
25 -0.15
26 -0.15
27 0.09
28 0.54
29 -0.02
3 -0.57
30 -0.15
31 -0.15
32 -0.15
33 -0.15
34 0.01
35 0.18
4 -0.81
45 0.37
46 0.15
49 0.15
5 -0.57
50 0.15
51 0.15
52 0.37
53 0.15
54 0.15
55 0.15
56 0.15
6 -0.49
7 -0.73
8 0.59
9 -0.42

> <PUBCHEM_EFFECTIVE_ROTOR_COUNT>
8.8

> <PUBCHEM_PHARMACOPHORE_FEATURES>
11
1 2 acceptor
1 3 acceptor
1 4 cation
1 6 donor
1 7 donor
3 8 10 34 cation
5 1 5 15 16 18 rings
5 8 9 10 11 34 rings
6 20 21 22 24 25 26 rings
6 27 29 30 31 32 33 rings
6 4 12 13 14 15 16 rings

> <PUBCHEM_HEAVY_ATOM_COUNT>
35

> <PUBCHEM_ATOM_DEF_STEREO_COUNT>
0

> <PUBCHEM_ATOM_UDEF_STEREO_COUNT>
0

> <PUBCHEM_BOND_DEF_STEREO_COUNT>
0

> <PUBCHEM_BOND_UDEF_STEREO_COUNT>
0

> <PUBCHEM_ISOTOPIC_ATOM_COUNT>
0

> <PUBCHEM_COMPONENT_COUNT>
1

> <PUBCHEM_CACTVS_TAUTO_COUNT>
6

> <PUBCHEM_CONFORMER_ID>
051095ED00000001

> <PUBCHEM_MMFF94_ENERGY>
93.2998

> <PUBCHEM_FEATURE_SELFOVERLAP>
55.892

> <PUBCHEM_SHAPE_FINGERPRINT>
10556698 54 17773855649255330481
10673678 19 18269274561194066475
10864689 126 18342458162444538648
10917259 128 18195510710215495712
10917259 69 18409732877234083084
10985338 8 18270673277645454498
11374522 174 18335714801337955829
11476731 99 18126841823493638696
11479125 193 18409733950179115177
11505856 67 18340758356249725423
11761917 142 18052809545268713080
11828042 163 18339651041092711572
11828042 200 18197201767863445231
11828042 53 18193282013031785036
1200032 147 18041000635613861226
12013929 29 18341049631602294284
13944108 23 18053379894964767337
14026016 13 18412548704521192169
14251764 75 18409165489503155091
14344974 204 9222693084995788176
14664723 55 18271813367400724921
15001296 14 18335979762312560499
15064981 113 17561092410419773318
15198563 99 17912352436668576583
15400415 2 18411697673298459609
155225 6 18338517435360645753
16067689 134 18409173220703530756
16993427 108 8070021156384211059
17899979 129 18338521819989258346
18339144 43 17340990888677404769
19053607 189 18339912784161509192
19302320 297 18121214286067896163
20691028 202 18411131446358402720
21647283 7 18113903732328536297
21792965 106 17978226390697765216
23516275 100 17045687808725812656
3388396 114 17042324415555872788
397830 11 18119824509025636659
42767 28 18131356344979639304
4366758 26 18339083670890968561
437795 171 18115859716128376061
44280116 191 18190194403311245244
44575985 47 18264745741930185096
5265222 85 18413107290692914345
53794403 172 18196371416844380423
5951187 136 18271249296398068958
59520647 147 18409174293981611504
6036956 94 18340492145554902465
6058803 2 18192404511698644042
6673363 416 17978231887116258687

> <PUBCHEM_SHAPE_MULTIPOLES>
672.55
23.98
8.72
1.09
3.55
1.39
-0.02
-44.38
-4.24
1.32
-0.92
-0.57
0.71
-3.66

> <PUBCHEM_SHAPE_SELFOVERLAP>
1453.527

> <PUBCHEM_SHAPE_VOLUME>
371.4

> <PUBCHEM_COORDINATE_TYPE>
2
5
10

$$$$
56600748
  -OEChem-05102415103D

 57 61  0     1  0  0  0  0  0999 V2000
   -3.8572   -1.5442    0.5102 S   0  0  0  0  0  0  0  0  0  0  0  0
   -4.0246    2.8479   -1.1126 O   0  0  0  0  0  0  0  0  0  0  0  0
    1.3678    0.0177    1.6136 O   0  0  0  0  0  0  0  0  0  0  0  0
    7.3897   -2.9670   -0.1318 O   0  0  0  0  0  0  0  0  0  0  0  0
   -7.5447   -3.2418    0.3911 N   0  0  2  0  0  0  0  0  0  0  0  0
   -5.4022    0.2190   -0.6026 N   0  0  0  0  0  0  0  0  0  0  0  0
   -3.1349    0.8951   -0.1366 N   0  0  0  0  0  0  0  0  0  0  0  0
    2.3295    2.1178    1.4032 N   0  0  0  0  0  0  0  0  0  0  0  0
    9.1087   -2.3279   -1.4552 N   0  0  0  0  0  0  0  0  0  0  0  0
   -8.0185   -2.5221   -0.8128 C   0  0  0  0  0  0  0  0  0  0  0  0
   -7.5640   -1.0443   -0.8084 C   0  0  0  0  0  0  0  0  0  0  0  0
   -6.0642   -3.3236    0.4355 C   0  0  0  0  0  0  0  0  0  0  0  0
   -6.1321   -0.9343   -0.4220 C   0  0  0  0  0  0  0  0  0  0  0  0
   -5.4625   -1.9838    0.1704 C   0  0  0  0  0  0  0  0  0  0  0  0
   -8.1276   -4.5813    0.4564 C   0  0  0  0  0  0  0  0  0  0  0  0
   -4.1831    0.0135   -0.1486 C   0  0  0  0  0  0  0  0  0  0  0  0
   -3.0943    2.2329   -0.6023 C   0  0  0  0  0  0  0  0  0  0  0  0
   -1.8045    2.9503   -0.4252 C   0  0  0  0  0  0  0  0  0  0  0  0
    0.2718    3.2583    0.7708 C   0  0  0  0  0  0  0  0  0  0  0  0
   -0.9398    2.5870    0.6072 C   0  0  0  0  0  0  0  0  0  0  0  0
    1.1964    2.8719    1.8758 C   0  0  0  0  0  0  0  0  0  0  0  0
   -1.4577    3.9851   -1.2940 C   0  0  0  0  0  0  0  0  0  0  0  0
    0.6187    4.2931   -0.0979 C   0  0  0  0  0  0  0  0  0  0  0  0
   -0.2462    4.6565   -1.1303 C   0  0  0  0  0  0  0  0  0  0  0  0
    3.5760    0.1031    0.8295 C   0  0  0  0  0  0  0  0  0  0  0  0
    2.3194    0.7327    1.3105 C   0  0  0  0  0  0  0  0  0  0  0  0
    5.9333   -1.0802   -0.0787 C   0  0  0  0  0  0  0  0  0  0  0  0
    4.4370    0.8152   -0.0055 C   0  0  0  0  0  0  0  0  0  0  0  0
    3.8935   -1.2007    1.2104 C   0  0  0  0  0  0  0  0  0  0  0  0
    5.6156    0.2235   -0.4596 C   0  0  0  0  0  0  0  0  0  0  0  0
    5.0721   -1.7923    0.7561 C   0  0  0  0  0  0  0  0  0  0  0  0
    7.1521   -1.6920   -0.5486 C   0  0  0  0  0  0  0  0  0  0  0  0
    8.1975   -1.3083   -1.3512 C   0  0  0  0  0  0  0  0  0  0  0  0
    8.5790   -3.2767   -0.7167 C   0  0  0  0  0  0  0  0  0  0  0  0
   -9.1145   -2.5370   -0.8578 H   0  0  0  0  0  0  0  0  0  0  0  0
   -7.6497   -3.0204   -1.7198 H   0  0  0  0  0  0  0  0  0  0  0  0
   -8.1661   -0.4771   -0.0883 H   0  0  0  0  0  0  0  0  0  0  0  0
   -7.7264   -0.6052   -1.7986 H   0  0  0  0  0  0  0  0  0  0  0  0
   -5.7545   -3.6820    1.4244 H   0  0  0  0  0  0  0  0  0  0  0  0
   -5.6926   -4.0317   -0.3167 H   0  0  0  0  0  0  0  0  0  0  0  0
   -9.2208   -4.5230    0.4983 H   0  0  0  0  0  0  0  0  0  0  0  0
   -7.8054   -5.0969    1.3679 H   0  0  0  0  0  0  0  0  0  0  0  0
   -7.8479   -5.1966   -0.4063 H   0  0  0  0  0  0  0  0  0  0  0  0
   -2.2821    0.4890    0.2368 H   0  0  0  0  0  0  0  0  0  0  0  0
   -1.1987    1.8066    1.3171 H   0  0  0  0  0  0  0  0  0  0  0  0
    1.5816    3.7701    2.3726 H   0  0  0  0  0  0  0  0  0  0  0  0
    0.6728    2.2907    2.6441 H   0  0  0  0  0  0  0  0  0  0  0  0
   -2.1148    4.2796   -2.1081 H   0  0  0  0  0  0  0  0  0  0  0  0
    1.5601    4.8235    0.0195 H   0  0  0  0  0  0  0  0  0  0  0  0
    0.0247    5.4613   -1.8075 H   0  0  0  0  0  0  0  0  0  0  0  0
    3.1680    2.6458    1.1868 H   0  0  0  0  0  0  0  0  0  0  0  0
    4.2123    1.8194   -0.3523 H   0  0  0  0  0  0  0  0  0  0  0  0
    3.2373   -1.7700    1.8634 H   0  0  0  0  0  0  0  0  0  0  0  0
    6.2649    0.7984   -1.1150 H   0  0  0  0  0  0  0  0  0  0  0  0
    5.2871   -2.8094    1.0739 H   0  0  0  0  0  0  0  0  0  0  0  0
    8.3505   -0.3668   -1.8581 H   0  0  0  0  0  0  0  0  0  0  0  0
    8.9700   -4.2636   -0.5197 H   0  0  0  0  0  0  0  0  0  0  0  0
  1 14  1  0  0  0  0
  1 16  1  0  0  0  0
  2 17  2  0  0  0  0
  3 26  2  0  0  0  0
  4 32  1  0  0  0  0
  4 34  1  0  0  0  0
  5 10  1  0  0  0  0
  5 12  1  0  0  0  0
  5 15  1  0  0  0  0
  6 13  1  0  0  0  0
  6 16  2  0  0  0  0
  7 16  1  0  0  0  0
  7 17  1  0  0  0  0
  7 44  1  0  0  0  0
  8 21  1  0  0  0  0
  8 26  1  0  0  0  0
  8 51  1  0  0  0  0
  9 33  1  0  0  0  0
  9 34  2  0  0  0  0
 10 11  1  0  0  0  0
 10 35  1  0  0  0  0
 10 36  1  0  0  0  0
 11 13  1  0  0  0  0
 11 37  1  0  0  0  0
 11 38  1  0  0  0  0
 12 14  1  0  0  0  0
 12 39  1  0  0  0  0
 12 40  1  0  0  0  0
 13 14  2  0  0  0  0
 15 41  1  0  0  0  0
 15 42  1  0  0  0  0
 15 43  1  0  0  0  0
 17 18  1  0  0  0  0
 18 20  1  0  0  0  0
 18 22  2  0  0  0  0
 19 20  2  0  0  0  0
 19 21  1  0  0  0  0
 19 23  1  0  0  0  0
 20 45  1  0  0  0  0
 21 46  1  0  0  0  0
 21 47  1  0  0  0  0
 22 24  1  0  0  0  0
 22 48  1  0  0  0  0
 23 24  2  0  0  0  0
 23 49  1  0  0  0  0
 24 50  1  0  0  0  0
 25 26  1  0  0  0  0
 25 28  2  0  0  0  0
 25 29  1  0  0  0  0
 27 30  2  0  0  0  0
 27 31  1  0  0  0  0
 27 32  1  0  0  0  0
 28 30  1  0  0  0  0
 28 52  1  0  0  0  0
 29 31  2  0  0  0  0
 29 53  1  0  0  0  0
 30 54  1  0  0  0  0
 31 55  1  0  0  0  0
 32 33  2  0  0  0  0
 33 56  1  0  0  0  0
 34 57  1  0  0  0  0
M  END
> <PUBCHEM_COMPOUND_CID>
56600748

> <PUBCHEM_CONFORMER_RMSD>
1

> <PUBCHEM_CONFORMER_DIVERSEORDER>
3
64
31
9
57
68
100
16
75
77
136
147
160
56
138
72
2
158
88
98
83
80
130
11
49
35
164
123
156
65
71
43
167
55
76
96
163
48
44
104
102
174
40
45
23
93
181
92
129
4
50
145
7
63
54
137
37
111
28
91
186
95
81
115
79
125
42
112
122
60
185
34
132
53
157
84
184
109
180
99
22
30
52
127
108
140
33
24
149
38
146
46
26
101
15
114
178
87
150
94
74
117
166
27
13
6
62
118
170
86
59
17
165
41
107
36
106
143
159
188
148
168
142
124
126
110
176
105
153
119
175
162
97
85
18
47
154
141
61
121
73
187
1
133
144
139
12
172
21
177
152
120
131
151
82
135
8
182
20
39
161
171
10
134
183
67
78
103
113
169
66
32
155
70
90
14
25
116
69
179
58
173
5
19
128
51
29
89

> <PUBCHEM_MMFF94_PARTIAL_CHARGES>
46
1 -0.08
10 0.27
11 0.18
12 0.45
13 0.05
14 -0.14
15 0.27
16 0.44
17 0.54
18 0.09
19 -0.14
2 -0.57
20 -0.15
21 0.44
22 -0.15
23 -0.15
24 -0.15
25 0.09
26 0.54
27 0.05
28 -0.15
29 -0.15
3 -0.57
30 -0.15
31 -0.15
32 0.09
33 0.08
34 0.33
4 -0.28
44 0.37
45 0.15
48 0.15
49 0.15
5 -0.81
50 0.15
51 0.37
52 0.15
53 0.15
54 0.15
55 0.15
56 0.15
57 0.15
6 -0.57
7 -0.49
8 -0.73
9 -0.57

> <PUBCHEM_EFFECTIVE_ROTOR_COUNT>
8.8

> <PUBCHEM_PHARMACOPHORE_FEATURES>
10
1 2 acceptor
1 3 acceptor
1 5 cation
1 7 donor
1 8 donor
5 1 6 13 14 16 rings
5 4 9 32 33 34 rings
6 18 19 20 22 23 24 rings
6 25 27 28 29 30 31 rings
6 5 10 11 12 13 14 rings

> <PUBCHEM_HEAVY_ATOM_COUNT>
34

> <PUBCHEM_ATOM_DEF_STEREO_COUNT>
0

> <PUBCHEM_ATOM_UDEF_STEREO_COUNT>
0

> <PUBCHEM_BOND_DEF_STEREO_COUNT>
0

> <PUBCHEM_BOND_UDEF_STEREO_COUNT>
0

> <PUBCHEM_ISOTOPIC_ATOM_COUNT>
0

> <PUBCHEM_COMPONENT_COUNT>
1

> <PUBCHEM_CACTVS_TAUTO_COUNT>
6

> <PUBCHEM_CONFORMER_ID>
035FA8AC00000003

> <PUBCHEM_MMFF94_ENERGY>
77.8281

> <PUBCHEM_FEATURE_SELFOVERLAP>
50.818

> <PUBCHEM_SHAPE_FINGERPRINT>
10280341 67 9007061244831773999
10554248 39 16227751927448438386
11135609 201 9583520906693519637
11411753 3 18269253751408208592
11421887 103 8718548272491028102
11621639 208 17466511522176336163
117089 54 18411139147240097655
11756154 67 18411419522921594879
11761917 116 18410857638478986582
11973864 48 16988852636786039670
12124843 1 17894909667834563055
12342043 65 18201991132174230936
12645989 146 18412544348997338879
12717326 120 18337377246741305442
13383661 66 18059585637693193806
1361 4 18195809562403142166
13673619 4 18131067121834057192
13690498 29 18187362087043371597
13785724 45 18263359347745554573
13989917 61 17902227042683037563
14040221 275 13829306987215823746
14340393 91 18187641414836692149
14931854 50 17895187792451588771
15152005 1 18341331171062660695
15152005 77 17988639692797558343
15448158 6 18339635737296378723
15510800 12 18343010095162838352
15773216 30 18194405713624851244
16990366 60 18410000053473160946
208703 8 18408600370654533948
20982279 24 17751087019674343219
21095086 4 18412545439902779083
21130935 74 18053383490839143011
21196832 93 18410857629978300250
21307412 95 18337659829371503461
21344244 246 18336550504107692788
21716022 299 18188218722260058893
21796203 349 16630519636329451792
21867126 195 18201431502578825454
22899556 105 18340221760452840628
255183 451 18336263552313885109
3862424 121 18409169938931057644
393628 179 12035735344466060894
397638 26 9871746888972114914
4330586 98 17968672617561007394
437795 150 18336827494082738911
44280117 145 18338520725738429620
44880168 125 17846205683337637535
484989 97 18343021065506026394
5372103 7 11169907286258339831
57816373 69 18055905748679552813
58260988 114 17917438566287397737
59521506 201 8646500578632032391
9980921 52 17628332069175143407

> <PUBCHEM_SHAPE_MULTIPOLES>
661.04
27.81
6.6
1.34
11.07
3.6
0.19
-49.06
-9.35
-4.97
-0.97
1.19
0.53
3.4

> <PUBCHEM_SHAPE_SELFOVERLAP>
1436.9

> <PUBCHEM_SHAPE_VOLUME>
362.8

> <PUBCHEM_COORDINATE_TYPE>
2
5
10

$$$$
56600750
  -OEChem-05102415103D

 56 60  0     1  0  0  0  0  0999 V2000
   -3.0325    1.1646    0.4221 S   0  0  0  0  0  0  0  0  0  0  0  0
    5.9515    1.0861   -1.2680 S   0  0  0  0  0  0  0  0  0  0  0  0
   -3.3845   -3.4079   -0.5374 O   0  0  0  0  0  0  0  0  0  0  0  0
    4.5129   -3.0237   -0.0230 O   0  0  0  0  0  0  0  0  0  0  0  0
   -6.5621    3.0405   -0.2967 N   0  0  2  0  0  0  0  0  0  0  0  0
   -4.6918   -0.7086   -0.2654 N   0  0  0  0  0  0  0  0  0  0  0  0
   -2.3906   -1.3543    0.0560 N   0  0  0  0  0  0  0  0  0  0  0  0
    2.8452   -1.9024    1.1351 N   0  0  0  0  0  0  0  0  0  0  0  0
    3.9334    0.5065    0.2399 N   0  0  0  0  0  0  0  0  0  0  0  0
    2.6599    4.5904    0.4767 N   0  0  0  0  0  0  0  0  0  0  0  0
   -7.4320    1.8968    0.0595 C   0  0  0  0  0  0  0  0  0  0  0  0
   -6.8525    0.5588   -0.4548 C   0  0  0  0  0  0  0  0  0  0  0  0
   -5.2361    2.9487    0.3620 C   0  0  0  0  0  0  0  0  0  0  0  0
   -5.3959    0.4706   -0.1689 C   0  0  0  0  0  0  0  0  0  0  0  0
   -4.6615    1.5830    0.1831 C   0  0  0  0  0  0  0  0  0  0  0  0
   -7.2085    4.3078    0.0417 C   0  0  0  0  0  0  0  0  0  0  0  0
   -3.4311   -0.4638    0.0273 C   0  0  0  0  0  0  0  0  0  0  0  0
   -2.4039   -2.7446   -0.2175 C   0  0  0  0  0  0  0  0  0  0  0  0
   -1.0948   -3.4433   -0.1283 C   0  0  0  0  0  0  0  0  0  0  0  0
    1.1341   -3.6019    0.7907 C   0  0  0  0  0  0  0  0  0  0  0  0
   -0.0945   -2.9466    0.7075 C   0  0  0  0  0  0  0  0  0  0  0  0
    2.2042   -3.0706    1.6834 C   0  0  0  0  0  0  0  0  0  0  0  0
   -0.8663   -4.5952   -0.8811 C   0  0  0  0  0  0  0  0  0  0  0  0
    1.3625   -4.7538    0.0380 C   0  0  0  0  0  0  0  0  0  0  0  0
    0.3623   -5.2503   -0.7982 C   0  0  0  0  0  0  0  0  0  0  0  0
    3.9629   -1.9789    0.3154 C   0  0  0  0  0  0  0  0  0  0  0  0
    4.5212   -0.6821   -0.1467 C   0  0  0  0  0  0  0  0  0  0  0  0
    4.6036    1.5046   -0.2920 C   0  0  0  0  0  0  0  0  0  0  0  0
    5.6262   -0.5702   -0.9644 C   0  0  0  0  0  0  0  0  0  0  0  0
    4.2859    2.9017   -0.1146 C   0  0  0  0  0  0  0  0  0  0  0  0
    5.2373    3.8888   -0.3468 C   0  0  0  0  0  0  0  0  0  0  0  0
    3.0230    3.3013    0.2922 C   0  0  0  0  0  0  0  0  0  0  0  0
    4.9015    5.2262   -0.1678 C   0  0  0  0  0  0  0  0  0  0  0  0
    3.6112    5.5217    0.2411 C   0  0  0  0  0  0  0  0  0  0  0  0
   -7.5645    1.8485    1.1491 H   0  0  0  0  0  0  0  0  0  0  0  0
   -8.4278    2.0244   -0.3826 H   0  0  0  0  0  0  0  0  0  0  0  0
   -7.0022    0.4866   -1.5389 H   0  0  0  0  0  0  0  0  0  0  0  0
   -7.3841   -0.2774    0.0121 H   0  0  0  0  0  0  0  0  0  0  0  0
   -5.3220    3.1567    1.4366 H   0  0  0  0  0  0  0  0  0  0  0  0
   -4.5648    3.6959   -0.0778 H   0  0  0  0  0  0  0  0  0  0  0  0
   -8.1547    4.4132   -0.5003 H   0  0  0  0  0  0  0  0  0  0  0  0
   -6.5789    5.1528   -0.2584 H   0  0  0  0  0  0  0  0  0  0  0  0
   -7.4142    4.3936    1.1147 H   0  0  0  0  0  0  0  0  0  0  0  0
   -1.5019   -0.9130    0.2721 H   0  0  0  0  0  0  0  0  0  0  0  0
   -0.2533   -2.0716    1.3316 H   0  0  0  0  0  0  0  0  0  0  0  0
    1.7782   -2.7879    2.6531 H   0  0  0  0  0  0  0  0  0  0  0  0
    2.9630   -3.8357    1.8861 H   0  0  0  0  0  0  0  0  0  0  0  0
   -1.6299   -4.9957   -1.5427 H   0  0  0  0  0  0  0  0  0  0  0  0
    2.3153   -5.2737    0.0910 H   0  0  0  0  0  0  0  0  0  0  0  0
    0.5410   -6.1462   -1.3857 H   0  0  0  0  0  0  0  0  0  0  0  0
    2.4537   -0.9913    1.3570 H   0  0  0  0  0  0  0  0  0  0  0  0
    6.2435   -1.3496   -1.3886 H   0  0  0  0  0  0  0  0  0  0  0  0
    6.2600    3.6784   -0.6443 H   0  0  0  0  0  0  0  0  0  0  0  0
    2.2301    2.5854    0.4889 H   0  0  0  0  0  0  0  0  0  0  0  0
    5.6280    6.0127   -0.3374 H   0  0  0  0  0  0  0  0  0  0  0  0
    3.2995    6.5494    0.3964 H   0  0  0  0  0  0  0  0  0  0  0  0
  1 15  1  0  0  0  0
  1 17  1  0  0  0  0
  2 28  1  0  0  0  0
  2 29  1  0  0  0  0
  3 18  2  0  0  0  0
  4 26  2  0  0  0  0
  5 11  1  0  0  0  0
  5 13  1  0  0  0  0
  5 16  1  0  0  0  0
  6 14  1  0  0  0  0
  6 17  2  0  0  0  0
  7 17  1  0  0  0  0
  7 18  1  0  0  0  0
  7 44  1  0  0  0  0
  8 22  1  0  0  0  0
  8 26  1  0  0  0  0
  8 51  1  0  0  0  0
  9 27  1  0  0  0  0
  9 28  2  0  0  0  0
 10 32  1  0  0  0  0
 10 34  2  0  0  0  0
 11 12  1  0  0  0  0
 11 35  1  0  0  0  0
 11 36  1  0  0  0  0
 12 14  1  0  0  0  0
 12 37  1  0  0  0  0
 12 38  1  0  0  0  0
 13 15  1  0  0  0  0
 13 39  1  0  0  0  0
 13 40  1  0  0  0  0
 14 15  2  0  0  0  0
 16 41  1  0  0  0  0
 16 42  1  0  0  0  0
 16 43  1  0  0  0  0
 18 19  1  0  0  0  0
 19 21  1  0  0  0  0
 19 23  2  0  0  0  0
 20 21  2  0  0  0  0
 20 22  1  0  0  0  0
 20 24  1  0  0  0  0
 21 45  1  0  0  0  0
 22 46  1  0  0  0  0
 22 47  1  0  0  0  0
 23 25  1  0  0  0  0
 23 48  1  0  0  0  0
 24 25  2  0  0  0  0
 24 49  1  0  0  0  0
 25 50  1  0  0  0  0
 26 27  1  0  0  0  0
 27 29  2  0  0  0  0
 28 30  1  0  0  0  0
 29 52  1  0  0  0  0
 30 31  1  0  0  0  0
 30 32  2  0  0  0  0
 31 33  2  0  0  0  0
 31 53  1  0  0  0  0
 32 54  1  0  0  0  0
 33 34  1  0  0  0  0
 33 55  1  0  0  0  0
 34 56  1  0  0  0  0
M  END
> <PUBCHEM_COMPOUND_CID>
56600750

> <PUBCHEM_CONFORMER_RMSD>
1.4

> <PUBCHEM_CONFORMER_DIVERSEORDER>
1
136
73
19
125
45
78
112
116
132
119
25
129
23
48
41
99
51
42
89
79
43
13
66
14
108
100
135
5
70
117
97
94
71
44
17
103
34
63
93
59
21
28
10
16
124
126
104
98
80
7
60
18
26
69
39
4
128
111
52
102
115
64
24
54
133
33
58
56
95
6
82
77
12
53
81
37
127
36
47
107
88
65
120
74
8
32
40
137
68
9
110
114
29
131
84
30
105
61
62
87
106
85
130
123
76
27
15
96
90
55
118
67
11
91
46
122
50
57
83
121
134
101
20
31
92
86
22
72
2
38
109
35
75
49
113
3

> <PUBCHEM_MMFF94_PARTIAL_CHARGES>
45
1 -0.08
10 -0.62
11 0.27
12 0.18
13 0.45
14 0.05
15 -0.14
16 0.27
17 0.44
18 0.54
19 0.09
2 -0.08
20 -0.14
21 -0.15
22 0.44
23 -0.15
24 -0.15
25 -0.15
26 0.72
27 0.14
28 0.33
29 -0.11
3 -0.57
30 0.05
31 -0.15
32 0.16
33 -0.15
34 0.16
4 -0.57
44 0.37
45 0.15
48 0.15
49 0.15
5 -0.81
50 0.15
51 0.37
52 0.15
53 0.15
54 0.15
55 0.15
56 0.15
6 -0.57
7 -0.49
8 -0.73
9 -0.57

> <PUBCHEM_EFFECTIVE_ROTOR_COUNT>
8.8

> <PUBCHEM_PHARMACOPHORE_FEATURES>
12
1 10 acceptor
1 3 acceptor
1 4 acceptor
1 5 cation
1 7 donor
1 8 donor
1 9 acceptor
5 1 6 14 15 17 rings
5 2 9 27 28 29 rings
6 10 30 31 32 33 34 rings
6 19 20 21 23 24 25 rings
6 5 11 12 13 14 15 rings

> <PUBCHEM_HEAVY_ATOM_COUNT>
34

> <PUBCHEM_ATOM_DEF_STEREO_COUNT>
0

> <PUBCHEM_ATOM_UDEF_STEREO_COUNT>
0

> <PUBCHEM_BOND_DEF_STEREO_COUNT>
0

> <PUBCHEM_BOND_UDEF_STEREO_COUNT>
0

> <PUBCHEM_ISOTOPIC_ATOM_COUNT>
0

> <PUBCHEM_COMPONENT_COUNT>
1

> <PUBCHEM_CACTVS_TAUTO_COUNT>
6

> <PUBCHEM_CONFORMER_ID>
035FA8AE00000001

> <PUBCHEM_MMFF94_ENERGY>
76.0719

> <PUBCHEM_FEATURE_SELFOVERLAP>
60.968

> <PUBCHEM_SHAPE_FINGERPRINT>
10439779 11 18266729363906253322
10462674 296 17548702876905402570
10556698 54 18269290091742665798
10673678 19 18339927022099784531
10864689 126 18410302419492844636
10917259 69 18337111281034132428
10951579 204 17471870564047886124
11273773 38 18339079281053577066
11374522 174 18187944896593410365
11479125 193 18337398261071766353
11505856 67 18198334259832975903
11621639 336 17835804097839263674
11761917 142 17692241255396090640
11828042 163 18411709790498493476
11828042 53 17759253177869374028
13944108 23 18193558865577926132
14068700 686 17190659499274567672
14117953 113 18196371421139321830
14187579 7 18051694648825229214
14429114 114 18194117640780775450
14747282 540 18117283562722589100
14790565 3 18410855499005082651
15001296 14 18335134306368542937
15320291 9 17615399694233060324
15320295 198 17900541177856816445
15320467 1 18339080363438570176
15400415 2 18338516455744845809
155225 5 17617659204029590552
15569901 51 17546446674714387465
15773879 134 18411975854705161637
15979999 66 17622451536728333590
16067689 134 17909844132580551513
19053607 189 18196081373545331224
19302320 297 18337388227769965954
21223535 225 18342175631068883998
23729417 116 16685137562796726031
241686 156 18335425681250944829
24204213 92 17844262731508954598
245318 6 18115040657258451351
4487111 67 17907015432537367920
4756261 7 17547331085879554899
4760202 170 17904750091304215773
508180 173 18339654408141480018
5109719 28 18339092497348409475
53794403 172 18410572860176241107
57366028 249 18047744911998365661
5951187 136 18343027666243409630
6036956 94 17541663154449844837
6176135 31 18337098042916226264

> <PUBCHEM_SHAPE_MULTIPOLES>
665.78
18.95
9.89
0.94
22.27
1.07
-0.08
26.46
3.02
-6.41
-0.06
-0.69
-0.57
-1.1

> <PUBCHEM_SHAPE_SELFOVERLAP>
1429.04

> <PUBCHEM_SHAPE_VOLUME>
370.5

> <PUBCHEM_COORDINATE_TYPE>
2
5
10

$$$$
84973038
  -OEChem-05102415103D

 58 62  0     1  0  0  0  0  0999 V2000
   -2.7450   -1.1303    0.3860 S   0  0  0  0  0  0  0  0  0  0  0  0
   -3.2939    3.4025   -0.6650 O   0  0  0  0  0  0  0  0  0  0  0  0
    4.4066    2.6534   -0.2080 O   0  0  0  0  0  0  0  0  0  0  0  0
    4.3489   -5.9878   -0.5756 O   0  0  0  0  0  0  0  0  0  0  0  0
   -6.3495   -2.9938    0.5547 N   0  0  2  0  0  0  0  0  0  0  0  0
   -4.4917    0.6644   -0.2942 N   0  0  0  0  0  0  0  0  0  0  0  0
   -2.2079    1.4010   -0.0554 N   0  0  0  0  0  0  0  0  0  0  0  0
    2.7366    2.0299    1.2758 N   0  0  0  0  0  0  0  0  0  0  0  0
   -7.0105   -2.1681   -0.4812 C   0  0  0  0  0  0  0  0  0  0  0  0
   -6.6137   -0.6787   -0.3608 C   0  0  0  0  0  0  0  0  0  0  0  0
   -4.8750   -3.0026    0.3926 C   0  0  0  0  0  0  0  0  0  0  0  0
   -5.1472   -0.5385   -0.1572 C   0  0  0  0  0  0  0  0  0  0  0  0
   -4.3647   -1.6119    0.2117 C   0  0  0  0  0  0  0  0  0  0  0  0
   -6.8687   -4.3608    0.5365 C   0  0  0  0  0  0  0  0  0  0  0  0
   -3.2150    0.4727   -0.0334 C   0  0  0  0  0  0  0  0  0  0  0  0
   -2.2805    2.7831   -0.3595 C   0  0  0  0  0  0  0  0  0  0  0  0
   -1.0056    3.5423   -0.2705 C   0  0  0  0  0  0  0  0  0  0  0  0
    1.2016    3.8225    0.6715 C   0  0  0  0  0  0  0  0  0  0  0  0
    2.2825    3.3610    1.5896 C   0  0  0  0  0  0  0  0  0  0  0  0
    0.0055    3.1097    0.5876 C   0  0  0  0  0  0  0  0  0  0  0  0
    3.4208   -1.9770    0.0879 C   0  0  0  0  0  0  0  0  0  0  0  0
    4.1072    0.3559    0.1531 C   0  0  0  0  0  0  0  0  0  0  0  0
    4.7330   -2.3453   -0.2934 C   0  0  0  0  0  0  0  0  0  0  0  0
   -0.8206    4.6879   -1.0446 C   0  0  0  0  0  0  0  0  0  0  0  0
    3.1242   -0.6220    0.3074 C   0  0  0  0  0  0  0  0  0  0  0  0
    1.3866    4.9680   -0.1026 C   0  0  0  0  0  0  0  0  0  0  0  0
    3.7766    1.7848    0.3897 C   0  0  0  0  0  0  0  0  0  0  0  0
    5.7099   -1.3477   -0.4440 C   0  0  0  0  0  0  0  0  0  0  0  0
    5.3976   -0.0061   -0.2219 C   0  0  0  0  0  0  0  0  0  0  0  0
    0.3753    5.4009   -0.9605 C   0  0  0  0  0  0  0  0  0  0  0  0
    2.4438   -2.9747    0.2386 C   0  0  0  0  0  0  0  0  0  0  0  0
    5.0297   -3.7004   -0.5129 C   0  0  0  0  0  0  0  0  0  0  0  0
    4.0467   -4.6782   -0.3585 C   0  0  0  0  0  0  0  0  0  0  0  0
    2.7563   -4.3161    0.0164 C   0  0  0  0  0  0  0  0  0  0  0  0
   -8.1009   -2.2350   -0.3820 H   0  0  0  0  0  0  0  0  0  0  0  0
   -6.7523   -2.5405   -1.4820 H   0  0  0  0  0  0  0  0  0  0  0  0
   -7.1312   -0.2289    0.4952 H   0  0  0  0  0  0  0  0  0  0  0  0
   -6.9268   -0.1393   -1.2613 H   0  0  0  0  0  0  0  0  0  0  0  0
   -4.5848   -3.6006   -0.4812 H   0  0  0  0  0  0  0  0  0  0  0  0
   -4.4192   -3.4540    1.2819 H   0  0  0  0  0  0  0  0  0  0  0  0
   -7.9471   -4.3647    0.7296 H   0  0  0  0  0  0  0  0  0  0  0  0
   -6.4056   -4.9586    1.3293 H   0  0  0  0  0  0  0  0  0  0  0  0
   -6.6882   -4.8589   -0.4228 H   0  0  0  0  0  0  0  0  0  0  0  0
   -1.2975    1.0003    0.1507 H   0  0  0  0  0  0  0  0  0  0  0  0
    3.1420    4.0410    1.5675 H   0  0  0  0  0  0  0  0  0  0  0  0
    1.9088    3.3494    2.6199 H   0  0  0  0  0  0  0  0  0  0  0  0
   -0.1259    2.2434    1.2301 H   0  0  0  0  0  0  0  0  0  0  0  0
    2.1019   -0.3560    0.5669 H   0  0  0  0  0  0  0  0  0  0  0  0
   -1.5939    5.0387   -1.7230 H   0  0  0  0  0  0  0  0  0  0  0  0
    2.3131    5.5334   -0.0491 H   0  0  0  0  0  0  0  0  0  0  0  0
    2.2891    1.2672    1.7727 H   0  0  0  0  0  0  0  0  0  0  0  0
    6.7254   -1.6079   -0.7355 H   0  0  0  0  0  0  0  0  0  0  0  0
    6.1776    0.7411   -0.3425 H   0  0  0  0  0  0  0  0  0  0  0  0
    0.5199    6.2922   -1.5642 H   0  0  0  0  0  0  0  0  0  0  0  0
    1.4283   -2.7151    0.5308 H   0  0  0  0  0  0  0  0  0  0  0  0
    6.0363   -3.9931   -0.8066 H   0  0  0  0  0  0  0  0  0  0  0  0
    1.9866   -5.0735    0.1377 H   0  0  0  0  0  0  0  0  0  0  0  0
    5.2856   -6.0581   -0.8276 H   0  0  0  0  0  0  0  0  0  0  0  0
  1 13  1  0  0  0  0
  1 15  1  0  0  0  0
  2 16  2  0  0  0  0
  3 27  2  0  0  0  0
  4 33  1  0  0  0  0
  4 58  1  0  0  0  0
  5  9  1  0  0  0  0
  5 11  1  0  0  0  0
  5 14  1  0  0  0  0
  6 12  1  0  0  0  0
  6 15  2  0  0  0  0
  7 15  1  0  0  0  0
  7 16  1  0  0  0  0
  7 44  1  0  0  0  0
  8 19  1  0  0  0  0
  8 27  1  0  0  0  0
  8 51  1  0  0  0  0
  9 10  1  0  0  0  0
  9 35  1  0  0  0  0
  9 36  1  0  0  0  0
 10 12  1  0  0  0  0
 10 37  1  0  0  0  0
 10 38  1  0  0  0  0
 11 13  1  0  0  0  0
 11 39  1  0  0  0  0
 11 40  1  0  0  0  0
 12 13  2  0  0  0  0
 14 41  1  0  0  0  0
 14 42  1  0  0  0  0
 14 43  1  0  0  0  0
 16 17  1  0  0  0  0
 17 20  1  0  0  0  0
 17 24  2  0  0  0  0
 18 19  1  0  0  0  0
 18 20  2  0  0  0  0
 18 26  1  0  0  0  0
 19 45  1  0  0  0  0
 19 46  1  0  0  0  0
 20 47  1  0  0  0  0
 21 23  2  0  0  0  0
 21 25  1  0  0  0  0
 21 31  1  0  0  0  0
 22 25  2  0  0  0  0
 22 27  1  0  0  0  0
 22 29  1  0  0  0  0
 23 28  1  0  0  0  0
 23 32  1  0  0  0  0
 24 30  1  0  0  0  0
 24 49  1  0  0  0  0
 25 48  1  0  0  0  0
 26 30  2  0  0  0  0
 26 50  1  0  0  0  0
 28 29  2  0  0  0  0
 28 52  1  0  0  0  0
 29 53  1  0  0  0  0
 30 54  1  0  0  0  0
 31 34  2  0  0  0  0
 31 55  1  0  0  0  0
 32 33  2  0  0  0  0
 32 56  1  0  0  0  0
 33 34  1  0  0  0  0
 34 57  1  0  0  0  0
M  END
> <PUBCHEM_COMPOUND_CID>
84973038

> <PUBCHEM_CONFORMER_RMSD>
1

> <PUBCHEM_CONFORMER_DIVERSEORDER>
9
151
43
185
53
199
111
252
94
127
17
315
229
1
228
79
47
240
48
192
268
54
182
14
258
16
174
193
222
73
231
95
76
78
317
186
232
295
218
209
89
32
197
278
230
279
7
173
307
49
152
306
207
336
198
169
130
119
178
154
348
135
149
61
195
194
143
28
294
221
300
211
8
274
124
131
65
255
245
175
70
183
140
179
250
318
235
187
291
22
302
40
139
339
303
331
15
283
116
340
167
105
137
347
126
304
11
27
128
205
237
96
275
145
166
146
155
41
83
112
206
286
242
345
344
161
313
188
248
71
168
97
247
20
93
261
191
122
289
142
225
98
212
102
219
77
301
273
129
46
321
90
99
337
19
100
75
270
176
184
171
264
123
136
310
36
265
37
309
84
349
213
69
25
234
305
216
107
200
172
159
44
86
226
156
113
67
257
189
13
88
239
338
210
21
30
144
158
352
346
60
254
162
260
82
271
341
298
57
204
106
322
12
45
177
101
223
249
208
68
63
170
165
238
227
6
351
114
42
292
147
251
157
85
297
104
335
288
117
326
92
115
323
203
103
148
350
312
262
324
91
284
164
121
160
220
180
314
333
34
334
138
3
311
5
343
224
320
24
72
327
342
120
256
163
190
58
108
31
74
281
81
233
246
330
329
18
316
236
319
132
133
215
39
308
33
87
196
290
332
64
51
269
141
35
201
280
214
267
55
259
62
263
243
244
253
287
217
109
2
56
26
181
59
110
80
125
277
325
150
328
50
296
38
299
52
153
266
4
10
282
66
293
118
241
285
134
29
202
276
23
272

> <PUBCHEM_MMFF94_PARTIAL_CHARGES>
45
1 -0.08
10 0.18
11 0.45
12 0.05
13 -0.14
14 0.27
15 0.44
16 0.54
17 0.09
18 -0.14
19 0.44
2 -0.57
20 -0.15
22 0.09
24 -0.15
25 -0.15
26 -0.15
27 0.54
28 -0.15
29 -0.15
3 -0.57
30 -0.15
31 -0.15
32 -0.15
33 0.08
34 -0.15
4 -0.53
44 0.37
47 0.15
48 0.15
49 0.15
5 -0.81
50 0.15
51 0.37
52 0.15
53 0.15
54 0.15
55 0.15
56 0.15
57 0.15
58 0.45
6 -0.57
7 -0.49
8 -0.73
9 0.27

> <PUBCHEM_EFFECTIVE_ROTOR_COUNT>
7.8

> <PUBCHEM_PHARMACOPHORE_FEATURES>
11
1 2 acceptor
1 3 acceptor
1 4 donor
1 5 cation
1 7 donor
1 8 donor
5 1 6 12 13 15 rings
6 17 18 20 24 26 30 rings
6 21 22 23 25 28 29 rings
6 21 23 31 32 33 34 rings
6 5 9 10 11 12 13 rings

> <PUBCHEM_HEAVY_ATOM_COUNT>
34

> <PUBCHEM_ATOM_DEF_STEREO_COUNT>
0

> <PUBCHEM_ATOM_UDEF_STEREO_COUNT>
0

> <PUBCHEM_BOND_DEF_STEREO_COUNT>
0

> <PUBCHEM_BOND_UDEF_STEREO_COUNT>
0

> <PUBCHEM_ISOTOPIC_ATOM_COUNT>
0

> <PUBCHEM_COMPONENT_COUNT>
1

> <PUBCHEM_CACTVS_TAUTO_COUNT>
27

> <PUBCHEM_CONFORMER_ID>
051095EE00000009

> <PUBCHEM_MMFF94_ENERGY>
88.7143

> <PUBCHEM_FEATURE_SELFOVERLAP>
55.919

> <PUBCHEM_SHAPE_FINGERPRINT>
10075450 59 18129966502327233063
10838868 229 18410299116995336035
11285246 1 17971200222709385976
11374522 301 18263666080708041747
11409948 41 18056173986899835447
11478447 30 18190729839530601666
117089 54 18412267220205174438
11828042 200 18337969909205075214
12107183 9 18341908359781863993
12202916 173 18043518611662411336
12841400 136 18408601461661408651
13553639 21 18261679263281293667
1361 2 18050565441418502857
13989917 61 18121500417190159859
15001296 14 18121215377743274320
15264996 154 18335998535746967974
15320291 9 17548688591412373918
15320467 1 18338516477076731318
15400415 2 17546164568757175205
15419008 42 17973409313896268141
15448158 6 18342455954261201054
15483637 11 18122626046460587496
15911013 46 18271524212849280161
15968369 26 18045211893733530469
17492 89 18267302028500866614
17909252 39 18341611478403177160
19301676 85 18121772838791957623
19311894 1 17690844463036913698
1979834 28 18052528065395713385
20156587 191 18333722534694149127
20609170 114 17976519635176568354
20775438 99 17834349572272739245
21057603 40 17979926230778057139
21133410 38 17625814242859559207
23559900 14 18265326391169265537
24771750 20 17682689771840931485
404807 14 18339367345174953163
437795 96 17758121775507291387
4394409 98 16601789108915106652
4435113 14 17678751256981772651
4461854 278 17907573984702910400
4756088 132 18338785737578493479
49967989 163 17477218133053765022
5309563 4 18410857680626279812
56611832 218 17109595818684728443
5776283 40 18050015677753931388
6422251 121 18408599253936968155
6441014 3 18196088846055261067
7970288 3 18410856542497389453
9555976 147 17489044725229554537
9831232 110 18264487459486143237

> <PUBCHEM_SHAPE_MULTIPOLES>
666.02
16.87
9.81
0.9
21.4
1.57
-0.12
-24.2
0.79
-5.97
1.37
-0.2
0.58
2.66

> <PUBCHEM_SHAPE_SELFOVERLAP>
1452.104

> <PUBCHEM_SHAPE_VOLUME>
364.2

> <PUBCHEM_COORDINATE_TYPE>
2
5
10

$$$$
56600953
  -OEChem-05102415103D

 56 60  0     1  0  0  0  0  0999 V2000
   -3.0336    1.1716    0.4237 S   0  0  0  0  0  0  0  0  0  0  0  0
    5.9505    1.0667   -1.2649 S   0  0  0  0  0  0  0  0  0  0  0  0
   -3.3994   -3.3991   -0.5386 O   0  0  0  0  0  0  0  0  0  0  0  0
    4.4990   -3.0395   -0.0227 O   0  0  0  0  0  0  0  0  0  0  0  0
   -6.5573    3.0588   -0.2945 N   0  0  2  0  0  0  0  0  0  0  0  0
   -4.6985   -0.6960   -0.2653 N   0  0  0  0  0  0  0  0  0  0  0  0
   -2.3994   -1.3489    0.0561 N   0  0  0  0  0  0  0  0  0  0  0  0
    2.8345   -1.9138    1.1358 N   0  0  0  0  0  0  0  0  0  0  0  0
    3.9303    0.4924    0.2423 N   0  0  0  0  0  0  0  0  0  0  0  0
    3.6825    5.5936    0.2323 N   0  0  0  0  0  0  0  0  0  0  0  0
   -7.4307    1.9175    0.0608 C   0  0  0  0  0  0  0  0  0  0  0  0
   -6.8553    0.5781   -0.4543 C   0  0  0  0  0  0  0  0  0  0  0  0
   -5.2317    2.9626    0.3643 C   0  0  0  0  0  0  0  0  0  0  0  0
   -5.3990    0.4852   -0.1682 C   0  0  0  0  0  0  0  0  0  0  0  0
   -4.6613    1.5952    0.1847 C   0  0  0  0  0  0  0  0  0  0  0  0
   -7.1998    4.3279    0.0445 C   0  0  0  0  0  0  0  0  0  0  0  0
   -3.4371   -0.4553    0.0278 C   0  0  0  0  0  0  0  0  0  0  0  0
   -2.4168   -2.7391   -0.2182 C   0  0  0  0  0  0  0  0  0  0  0  0
   -1.1099   -3.4418   -0.1292 C   0  0  0  0  0  0  0  0  0  0  0  0
    1.1183   -3.6078    0.7901 C   0  0  0  0  0  0  0  0  0  0  0  0
   -0.1082   -2.9487    0.7071 C   0  0  0  0  0  0  0  0  0  0  0  0
    2.1899   -3.0804    1.6833 C   0  0  0  0  0  0  0  0  0  0  0  0
   -0.8848   -4.5939   -0.8827 C   0  0  0  0  0  0  0  0  0  0  0  0
    1.3433   -4.7599    0.0367 C   0  0  0  0  0  0  0  0  0  0  0  0
    0.3418   -5.2529   -0.8000 C   0  0  0  0  0  0  0  0  0  0  0  0
    3.9522   -1.9932    0.3163 C   0  0  0  0  0  0  0  0  0  0  0  0
    4.5146   -0.6979   -0.1450 C   0  0  0  0  0  0  0  0  0  0  0  0
    4.6036    1.4887   -0.2888 C   0  0  0  0  0  0  0  0  0  0  0  0
    5.6200   -0.5888   -0.9623 C   0  0  0  0  0  0  0  0  0  0  0  0
    4.2902    2.8867   -0.1106 C   0  0  0  0  0  0  0  0  0  0  0  0
    5.2594    3.8551   -0.3475 C   0  0  0  0  0  0  0  0  0  0  0  0
    3.0174    3.2701    0.2975 C   0  0  0  0  0  0  0  0  0  0  0  0
    4.9084    5.1828   -0.1633 C   0  0  0  0  0  0  0  0  0  0  0  0
    2.7666    4.6240    0.4529 C   0  0  0  0  0  0  0  0  0  0  0  0
   -7.5636    1.8690    1.1503 H   0  0  0  0  0  0  0  0  0  0  0  0
   -8.4261    2.0485   -0.3813 H   0  0  0  0  0  0  0  0  0  0  0  0
   -7.0050    0.5070   -1.5384 H   0  0  0  0  0  0  0  0  0  0  0  0
   -7.3894   -0.2568    0.0120 H   0  0  0  0  0  0  0  0  0  0  0  0
   -5.3172    3.1701    1.4390 H   0  0  0  0  0  0  0  0  0  0  0  0
   -4.5581    3.7079   -0.0749 H   0  0  0  0  0  0  0  0  0  0  0  0
   -8.1457    4.4365   -0.4976 H   0  0  0  0  0  0  0  0  0  0  0  0
   -6.5676    5.1711   -0.2549 H   0  0  0  0  0  0  0  0  0  0  0  0
   -7.4055    4.4136    1.1176 H   0  0  0  0  0  0  0  0  0  0  0  0
   -1.5093   -0.9105    0.2727 H   0  0  0  0  0  0  0  0  0  0  0  0
   -0.2644   -2.0737    1.3317 H   0  0  0  0  0  0  0  0  0  0  0  0
    1.7646   -2.7970    2.6531 H   0  0  0  0  0  0  0  0  0  0  0  0
    2.9463   -3.8479    1.8856 H   0  0  0  0  0  0  0  0  0  0  0  0
   -1.6495   -4.9918   -1.5446 H   0  0  0  0  0  0  0  0  0  0  0  0
    2.2946   -5.2828    0.0895 H   0  0  0  0  0  0  0  0  0  0  0  0
    0.5179   -6.1489   -1.3880 H   0  0  0  0  0  0  0  0  0  0  0  0
    2.4458   -1.0016    1.3582 H   0  0  0  0  0  0  0  0  0  0  0  0
    6.2350   -1.3698   -1.3869 H   0  0  0  0  0  0  0  0  0  0  0  0
    6.2807    3.6446   -0.6430 H   0  0  0  0  0  0  0  0  0  0  0  0
    2.2288    2.5502    0.4910 H   0  0  0  0  0  0  0  0  0  0  0  0
    5.6294    5.9767   -0.3287 H   0  0  0  0  0  0  0  0  0  0  0  0
    1.7897    4.9753    0.7686 H   0  0  0  0  0  0  0  0  0  0  0  0
  1 15  1  0  0  0  0
  1 17  1  0  0  0  0
  2 28  1  0  0  0  0
  2 29  1  0  0  0  0
  3 18  2  0  0  0  0
  4 26  2  0  0  0  0
  5 11  1  0  0  0  0
  5 13  1  0  0  0  0
  5 16  1  0  0  0  0
  6 14  1  0  0  0  0
  6 17  2  0  0  0  0
  7 17  1  0  0  0  0
  7 18  1  0  0  0  0
  7 44  1  0  0  0  0
  8 22  1  0  0  0  0
  8 26  1  0  0  0  0
  8 51  1  0  0  0  0
  9 27  1  0  0  0  0
  9 28  2  0  0  0  0
 10 33  2  0  0  0  0
 10 34  1  0  0  0  0
 11 12  1  0  0  0  0
 11 35  1  0  0  0  0
 11 36  1  0  0  0  0
 12 14  1  0  0  0  0
 12 37  1  0  0  0  0
 12 38  1  0  0  0  0
 13 15  1  0  0  0  0
 13 39  1  0  0  0  0
 13 40  1  0  0  0  0
 14 15  2  0  0  0  0
 16 41  1  0  0  0  0
 16 42  1  0  0  0  0
 16 43  1  0  0  0  0
 18 19  1  0  0  0  0
 19 21  1  0  0  0  0
 19 23  2  0  0  0  0
 20 21  2  0  0  0  0
 20 22  1  0  0  0  0
 20 24  1  0  0  0  0
 21 45  1  0  0  0  0
 22 46  1  0  0  0  0
 22 47  1  0  0  0  0
 23 25  1  0  0  0  0
 23 48  1  0  0  0  0
 24 25  2  0  0  0  0
 24 49  1  0  0  0  0
 25 50  1  0  0  0  0
 26 27  1  0  0  0  0
 27 29  2  0  0  0  0
 28 30  1  0  0  0  0
 29 52  1  0  0  0  0
 30 31  2  0  0  0  0
 30 32  1  0  0  0  0
 31 33  1  0  0  0  0
 31 53  1  0  0  0  0
 32 34  2  0  0  0  0
 32 54  1  0  0  0  0
 33 55  1  0  0  0  0
 34 56  1  0  0  0  0
M  END
> <PUBCHEM_COMPOUND_CID>
56600953

> <PUBCHEM_CONFORMER_RMSD>
1.2

> <PUBCHEM_CONFORMER_DIVERSEORDER>
1
129
83
205
196
33
29
38
70
50
120
21
48
157
193
15
26
180
57
7
130
78
106
136
95
34
102
80
135
153
76
127
202
89
88
19
42
24
99
139
191
124
56
54
35
85
171
154
97
122
195
37
128
68
82
67
160
69
210
16
8
98
183
32
201
173
117
172
90
207
49
118
147
59
93
199
167
86
113
52
66
156
159
39
190
84
138
112
143
126
64
187
115
175
213
108
192
100
23
145
10
96
123
149
189
79
81
148
161
45
151
110
181
36
65
111
13
150
62
105
109
134
176
63
133
137
51
177
11
77
75
4
158
12
170
185
72
206
44
208
114
22
163
71
184
20
27
214
55
14
198
104
43
166
116
211
6
169
204
41
215
144
141
119
94
164
152
121
9
53
25
28
30
165
182
103
17
101
174
18
186
179
168
91
46
200
31
107
61
73
203
3
140
194
209
197
178
146
216
142
92
60
155
40
212
47
87
188
5
132
162
58
74
131
125
2

> <PUBCHEM_MMFF94_PARTIAL_CHARGES>
45
1 -0.08
10 -0.62
11 0.27
12 0.18
13 0.45
14 0.05
15 -0.14
16 0.27
17 0.44
18 0.54
19 0.09
2 -0.08
20 -0.14
21 -0.15
22 0.44
23 -0.15
24 -0.15
25 -0.15
26 0.72
27 0.14
28 0.33
29 -0.11
3 -0.57
30 0.05
31 -0.15
32 -0.15
33 0.16
34 0.16
4 -0.57
44 0.37
45 0.15
48 0.15
49 0.15
5 -0.81
50 0.15
51 0.37
52 0.15
53 0.15
54 0.15
55 0.15
56 0.15
6 -0.57
7 -0.49
8 -0.73
9 -0.57

> <PUBCHEM_EFFECTIVE_ROTOR_COUNT>
8.8

> <PUBCHEM_PHARMACOPHORE_FEATURES>
12
1 10 acceptor
1 3 acceptor
1 4 acceptor
1 5 cation
1 7 donor
1 8 donor
1 9 acceptor
5 1 6 14 15 17 rings
5 2 9 27 28 29 rings
6 10 30 31 32 33 34 rings
6 19 20 21 23 24 25 rings
6 5 11 12 13 14 15 rings

> <PUBCHEM_HEAVY_ATOM_COUNT>
34

> <PUBCHEM_ATOM_DEF_STEREO_COUNT>
0

> <PUBCHEM_ATOM_UDEF_STEREO_COUNT>
0

> <PUBCHEM_BOND_DEF_STEREO_COUNT>
0

> <PUBCHEM_BOND_UDEF_STEREO_COUNT>
0

> <PUBCHEM_ISOTOPIC_ATOM_COUNT>
0

> <PUBCHEM_COMPONENT_COUNT>
1

> <PUBCHEM_CACTVS_TAUTO_COUNT>
6

> <PUBCHEM_CONFORMER_ID>
035FA97900000001

> <PUBCHEM_MMFF94_ENERGY>
76.5986

> <PUBCHEM_FEATURE_SELFOVERLAP>
60.968

> <PUBCHEM_SHAPE_FINGERPRINT>
10439779 11 18266728264389357290
10462674 296 17548702876910696810
10556698 54 18269290091742672286
10673678 19 18339927022105052795
10864689 126 18410583894469548796
10917259 69 18337111281034119436
10951579 204 17471870564053141388
11273773 38 18339079281043027562
11374522 174 18187944896577573117
11479125 193 18337116773257652561
11505856 67 18198334255548564615
11621639 336 17835804102134185562
11761917 142 17764298845139044792
11828042 163 18411709790493212212
11828042 53 17759253177869374036
12925494 130 18335421262156202339
13944108 23 18193558865577932628
14068700 686 17190659499258743416
14117953 113 18196371421128778822
14187579 7 18051694644525000158
14429114 114 18194117640775507194
14747282 540 18117283562717307852
14790565 3 18410855494715396611
15001296 14 18335134306405492193
15198563 99 17982449609811108255
15320291 9 17615399694222504324
15320295 198 17900541177856835957
15320467 1 18339080363428014184
15400415 2 18338516455744852305
155225 5 17617659204024309312
15773879 134 18411975854705161637
15979999 66 17622451536738883102
16067689 134 17909843033068930217
19053607 189 18340194254632138978
19302320 297 18337388227759422947
21223535 225 18342175631063615742
23729417 116 16613079968769354103
241686 156 18335425681293136365
245318 6 18115040657263667647
4487111 67 17907015432537354936
4756261 7 17547331085890104403
4760202 170 17904750091309477509
508180 173 18339654408136224762
5109719 28 18339092497348409475
53794403 172 18410572860186790611
57366028 249 18047744907703404853
5951187 136 18343027666232866622
6036956 94 17541663154460394341
6176135 31 18337098038615958232

> <PUBCHEM_SHAPE_MULTIPOLES>
665.78
18.93
9.84
0.94
22.49
0.92
-0.08
26.27
3.02
-6.38
-0.04
-0.69
-0.56
-1.12

> <PUBCHEM_SHAPE_SELFOVERLAP>
1429.313

> <PUBCHEM_SHAPE_VOLUME>
370.4

> <PUBCHEM_COORDINATE_TYPE>
2
5
10

$$$$
84973039
  -OEChem-05102415103D

 56 60  0     1  0  0  0  0  0999 V2000
   -3.3950   -1.5164   -0.6435 S   0  0  0  0  0  0  0  0  0  0  0  0
    6.6912   -5.0662    0.2497 S   0  0  0  0  0  0  0  0  0  0  0  0
   -4.0565    2.8263    0.9799 O   0  0  0  0  0  0  0  0  0  0  0  0
    3.7647    3.3109   -0.1883 O   0  0  0  0  0  0  0  0  0  0  0  0
   -7.3021   -5.0521   -0.5005 N   0  0  0  0  0  0  0  0  0  0  0  0
   -5.1413    0.0719    0.4262 N   0  0  0  0  0  0  0  0  0  0  0  0
   -2.9442    0.9801    0.0250 N   0  0  0  0  0  0  0  0  0  0  0  0
    2.1071    2.1904   -1.3615 N   0  0  0  0  0  0  0  0  0  0  0  0
    7.1677   -2.7336    1.0305 N   0  0  0  0  0  0  0  0  0  0  0  0
    7.6303   -3.9716    1.1018 N   0  0  0  0  0  0  0  0  0  0  0  0
   -6.7142   -3.8378    0.0617 C   0  0  2  0  0  0  0  0  0  0  0  0
   -7.7221   -2.6690   -0.0274 C   0  0  0  0  0  0  0  0  0  0  0  0
   -5.3960   -3.5111   -0.6778 C   0  0  0  0  0  0  0  0  0  0  0  0
   -7.1665   -1.3845    0.6168 C   0  0  0  0  0  0  0  0  0  0  0  0
   -4.9551   -2.1256   -0.3423 C   0  0  0  0  0  0  0  0  0  0  0  0
   -5.7511   -1.1477    0.2201 C   0  0  0  0  0  0  0  0  0  0  0  0
   -3.8961   -0.0047    0.0060 C   0  0  0  0  0  0  0  0  0  0  0  0
   -3.0542    2.3126    0.4943 C   0  0  0  0  0  0  0  0  0  0  0  0
   -1.8246    3.1430    0.4056 C   0  0  0  0  0  0  0  0  0  0  0  0
    0.2884    3.6474   -0.6515 C   0  0  0  0  0  0  0  0  0  0  0  0
   -0.8636    2.8656   -0.5666 C   0  0  0  0  0  0  0  0  0  0  0  0
    1.3176    3.3501   -1.6896 C   0  0  0  0  0  0  0  0  0  0  0  0
   -1.6336    4.2024    1.2930 C   0  0  0  0  0  0  0  0  0  0  0  0
    0.4796    4.7065    0.2358 C   0  0  0  0  0  0  0  0  0  0  0  0
   -0.4815    4.9839    1.2080 C   0  0  0  0  0  0  0  0  0  0  0  0
    3.9938    0.9865   -0.3958 C   0  0  0  0  0  0  0  0  0  0  0  0
    3.2824    2.2700   -0.6270 C   0  0  0  0  0  0  0  0  0  0  0  0
    5.3295   -1.4240    0.0380 C   0  0  0  0  0  0  0  0  0  0  0  0
    3.2808   -0.2122   -0.3761 C   0  0  0  0  0  0  0  0  0  0  0  0
    5.3747    0.9800   -0.1983 C   0  0  0  0  0  0  0  0  0  0  0  0
    3.9486   -1.4174   -0.1593 C   0  0  0  0  0  0  0  0  0  0  0  0
    6.0425   -0.2252    0.0185 C   0  0  0  0  0  0  0  0  0  0  0  0
    6.0164   -2.6648    0.2619 C   0  0  0  0  0  0  0  0  0  0  0  0
    5.5824   -3.8636   -0.2676 C   0  0  0  0  0  0  0  0  0  0  0  0
   -6.4912   -4.0211    1.1213 H   0  0  0  0  0  0  0  0  0  0  0  0
   -7.9582   -2.4699   -1.0818 H   0  0  0  0  0  0  0  0  0  0  0  0
   -8.6661   -2.9337    0.4647 H   0  0  0  0  0  0  0  0  0  0  0  0
   -5.5440   -3.5743   -1.7641 H   0  0  0  0  0  0  0  0  0  0  0  0
   -4.6258   -4.2434   -0.4068 H   0  0  0  0  0  0  0  0  0  0  0  0
   -7.2127   -1.4764    1.7086 H   0  0  0  0  0  0  0  0  0  0  0  0
   -7.7900   -0.5300    0.3322 H   0  0  0  0  0  0  0  0  0  0  0  0
   -8.1411   -5.3011    0.0218 H   0  0  0  0  0  0  0  0  0  0  0  0
   -6.6527   -5.8299   -0.3911 H   0  0  0  0  0  0  0  0  0  0  0  0
   -2.0433    0.6621   -0.3191 H   0  0  0  0  0  0  0  0  0  0  0  0
   -0.9989    2.0697   -1.2935 H   0  0  0  0  0  0  0  0  0  0  0  0
    0.8330    3.1581   -2.6541 H   0  0  0  0  0  0  0  0  0  0  0  0
    1.9837    4.2080   -1.8400 H   0  0  0  0  0  0  0  0  0  0  0  0
   -2.3673    4.4327    2.0609 H   0  0  0  0  0  0  0  0  0  0  0  0
    1.3732    5.3228    0.1830 H   0  0  0  0  0  0  0  0  0  0  0  0
   -0.3318    5.8077    1.8998 H   0  0  0  0  0  0  0  0  0  0  0  0
    1.7913    1.3041   -1.7402 H   0  0  0  0  0  0  0  0  0  0  0  0
    2.2013   -0.2483   -0.4891 H   0  0  0  0  0  0  0  0  0  0  0  0
    5.9484    1.9029   -0.2155 H   0  0  0  0  0  0  0  0  0  0  0  0
    3.3564   -2.3284   -0.1270 H   0  0  0  0  0  0  0  0  0  0  0  0
    7.1198   -0.2056    0.1643 H   0  0  0  0  0  0  0  0  0  0  0  0
    4.7378   -4.0972   -0.9006 H   0  0  0  0  0  0  0  0  0  0  0  0
  1 15  1  0  0  0  0
  1 17  1  0  0  0  0
  2 10  1  0  0  0  0
  2 34  1  0  0  0  0
  3 18  2  0  0  0  0
  4 27  2  0  0  0  0
  5 11  1  0  0  0  0
  5 42  1  0  0  0  0
  5 43  1  0  0  0  0
  6 16  1  0  0  0  0
  6 17  2  0  0  0  0
  7 17  1  0  0  0  0
  7 18  1  0  0  0  0
  7 44  1  0  0  0  0
  8 22  1  0  0  0  0
  8 27  1  0  0  0  0
  8 51  1  0  0  0  0
  9 10  2  0  0  0  0
  9 33  1  0  0  0  0
 11 12  1  0  0  0  0
 11 13  1  0  0  0  0
 11 35  1  0  0  0  0
 12 14  1  0  0  0  0
 12 36  1  0  0  0  0
 12 37  1  0  0  0  0
 13 15  1  0  0  0  0
 13 38  1  0  0  0  0
 13 39  1  0  0  0  0
 14 16  1  0  0  0  0
 14 40  1  0  0  0  0
 14 41  1  0  0  0  0
 15 16  2  0  0  0  0
 18 19  1  0  0  0  0
 19 21  1  0  0  0  0
 19 23  2  0  0  0  0
 20 21  2  0  0  0  0
 20 22  1  0  0  0  0
 20 24  1  0  0  0  0
 21 45  1  0  0  0  0
 22 46  1  0  0  0  0
 22 47  1  0  0  0  0
 23 25  1  0  0  0  0
 23 48  1  0  0  0  0
 24 25  2  0  0  0  0
 24 49  1  0  0  0  0
 25 50  1  0  0  0  0
 26 27  1  0  0  0  0
 26 29  2  0  0  0  0
 26 30  1  0  0  0  0
 28 31  2  0  0  0  0
 28 32  1  0  0  0  0
 28 33  1  0  0  0  0
 29 31  1  0  0  0  0
 29 52  1  0  0  0  0
 30 32  2  0  0  0  0
 30 53  1  0  0  0  0
 31 54  1  0  0  0  0
 32 55  1  0  0  0  0
 33 34  2  0  0  0  0
 34 56  1  0  0  0  0
M  END
> <PUBCHEM_COMPOUND_CID>
84973039

> <PUBCHEM_CONFORMER_RMSD>
1

> <PUBCHEM_CONFORMER_DIVERSEORDER>
1
166
44
96
86
141
64
151
78
101
60
69
138
46
38
116
144
33
103
85
119
53
140
188
134
104
36
83
20
111
65
72
35
125
105
172
178
81
27
62
79
57
91
70
162
71
74
8
66
12
47
29
80
32
176
24
136
167
113
142
58
49
21
189
19
109
90
42
152
124
173
98
11
28
187
5
61
186
10
121
82
171
185
39
88
158
25
154
108
175
84
40
26
169
23
120
95
55
89
168
48
112
52
30
31
190
102
7
9
100
129
56
146
127
177
67
93
139
50
17
184
156
110
128
97
148
182
157
4
51
130
76
160
135
13
170
165
73
147
106
153
145
143
63
164
174
92
183
181
14
2
180
132
161
137
107
59
75
68
126
3
179
118
34
54
155
77
45
149
114
115
41
163
99
133
22
122
43
159
18
150
87
131
15
123
16
37
6
117
94

> <PUBCHEM_MMFF94_PARTIAL_CHARGES>
46
1 -0.08
10 -0.22
11 0.27
13 0.18
14 0.18
15 -0.14
16 0.05
17 0.44
18 0.54
19 0.09
2 0.18
20 -0.14
21 -0.15
22 0.44
23 -0.15
24 -0.15
25 -0.15
26 0.09
27 0.54
28 0.05
29 -0.15
3 -0.57
30 -0.15
31 -0.15
32 -0.15
33 0.17
34 -0.11
4 -0.57
42 0.36
43 0.36
44 0.37
45 0.15
48 0.15
49 0.15
5 -0.99
50 0.15
51 0.37
52 0.15
53 0.15
54 0.15
55 0.15
56 0.15
6 -0.57
7 -0.49
8 -0.73
9 -0.23

> <PUBCHEM_EFFECTIVE_ROTOR_COUNT>
8.8

> <PUBCHEM_PHARMACOPHORE_FEATURES>
11
1 3 acceptor
1 4 acceptor
1 5 cation
1 5 donor
1 7 donor
1 8 donor
5 1 6 15 16 17 rings
5 2 9 10 33 34 rings
6 11 12 13 14 15 16 rings
6 19 20 21 23 24 25 rings
6 26 28 29 30 31 32 rings

> <PUBCHEM_HEAVY_ATOM_COUNT>
34

> <PUBCHEM_ATOM_DEF_STEREO_COUNT>
1

> <PUBCHEM_ATOM_UDEF_STEREO_COUNT>
0

> <PUBCHEM_BOND_DEF_STEREO_COUNT>
0

> <PUBCHEM_BOND_UDEF_STEREO_COUNT>
0

> <PUBCHEM_ISOTOPIC_ATOM_COUNT>
0

> <PUBCHEM_COMPONENT_COUNT>
1

> <PUBCHEM_CACTVS_TAUTO_COUNT>
6

> <PUBCHEM_CONFORMER_ID>
051095EF00000001

> <PUBCHEM_MMFF94_ENERGY>
69.1656

> <PUBCHEM_FEATURE_SELFOVERLAP>
55.891

> <PUBCHEM_SHAPE_FINGERPRINT>
10100884 174 18333729109678104858
10622 236 18408605859433204164
11399510 152 17916852561651054280
11409948 35 18336545045457116447
11478447 58 18049722124422362355
11607047 403 18268137846923784136
117089 54 18409453582967011946
11761917 116 18337117774787216654
11801155 225 17326332130451237786
12645989 146 18336834091596110474
12841400 136 18335419058416733147
131258 38 18120644996831812436
13553639 21 18265064689795672939
1361 4 18411702041986672194
13947947 140 18335990830617498599
14040222 275 18264228983585523294
14344974 204 18266740169860379622
14856354 85 17838616653179425556
15064981 113 12901552296014174648
15419008 145 18266731386662854530
15538507 19 18123748661334874426
15569901 51 18409448115505805819
15728490 83 18410294696735191383
15803439 3 16739993395521384061
16728300 4 18413671322956567005
16728433 281 10735002090097687602
17324776 126 18335699425286834514
17492 89 18409730651454846460
19303781 99 17822583698670202120
19319366 153 17834682977609602132
19841028 212 18334293179904800507
208703 8 18335696118214049226
21360442 33 18193836175238128607
21362267 20 17759516674487406370
23523787 8 16886069034161950324
23523788 1 18124566886437474800
23569914 152 18125126461294869085
23569943 247 18337394954838920379
24893989 43 17770513241534470430
260245 28 18196089060803775679
32027 91 18341324600548154733
4017518 198 17398953769384453604
4756088 132 18125430063253238631
484985 159 17974283231602203372
50080093 196 17463124639514731034
6057620 51 18334301989874416998
6058803 2 18265078897310338556
6201320 221 18268134535256046847
6201320 77 17389696238825314835
6201460 15 18409453561660772574
6441014 3 18339359669424998546
6697151 62 17774435127288170949
7970288 3 18411701027699234973
9555976 147 17917724469897129593
96874 4 18410574028560319951

> <PUBCHEM_SHAPE_MULTIPOLES>
665.78
23.25
9.13
1.03
2.24
0.27
0.05
-44.42
-3.12
-0.9
-1.1
-0.24
0.68
-3.78

> <PUBCHEM_SHAPE_SELFOVERLAP>
1430.797

> <PUBCHEM_SHAPE_VOLUME>
368.9

> <PUBCHEM_COORDINATE_TYPE>
2
5
10

$$$$
84973040
  -OEChem-05102415103D

 56 60  0     1  0  0  0  0  0999 V2000
   -3.3955   -1.5178   -0.6329 S   0  0  0  0  0  0  0  0  0  0  0  0
    6.6906   -5.0691    0.2676 S   0  0  0  0  0  0  0  0  0  0  0  0
   -4.0532    2.8304    0.9770 O   0  0  0  0  0  0  0  0  0  0  0  0
    3.7672    3.3073   -0.2004 O   0  0  0  0  0  0  0  0  0  0  0  0
   -7.3311   -5.0237   -0.5604 N   0  0  0  0  0  0  0  0  0  0  0  0
   -5.1396    0.0742    0.4351 N   0  0  0  0  0  0  0  0  0  0  0  0
   -2.9425    0.9801    0.0282 N   0  0  0  0  0  0  0  0  0  0  0  0
    2.1080    2.1830   -1.3676 N   0  0  0  0  0  0  0  0  0  0  0  0
    7.1687   -2.7337    1.0389 N   0  0  0  0  0  0  0  0  0  0  0  0
    7.6310   -3.9716    1.1146 N   0  0  0  0  0  0  0  0  0  0  0  0
   -6.9289   -3.6189   -0.5905 C   0  0  1  0  0  0  0  0  0  0  0  0
   -7.5209   -2.8708    0.6258 C   0  0  0  0  0  0  0  0  0  0  0  0
   -5.3858   -3.5236   -0.6224 C   0  0  0  0  0  0  0  0  0  0  0  0
   -7.1763   -1.3695    0.5972 C   0  0  0  0  0  0  0  0  0  0  0  0
   -4.9575   -2.1235   -0.3342 C   0  0  0  0  0  0  0  0  0  0  0  0
   -5.7484   -1.1477    0.2387 C   0  0  0  0  0  0  0  0  0  0  0  0
   -3.8948   -0.0045    0.0141 C   0  0  0  0  0  0  0  0  0  0  0  0
   -3.0516    2.3144    0.4926 C   0  0  0  0  0  0  0  0  0  0  0  0
   -1.8217    3.1440    0.3994 C   0  0  0  0  0  0  0  0  0  0  0  0
    0.2905    3.6434   -0.6616 C   0  0  0  0  0  0  0  0  0  0  0  0
   -0.8617    2.8624   -0.5726 C   0  0  0  0  0  0  0  0  0  0  0  0
    1.3186    3.3416   -1.6995 C   0  0  0  0  0  0  0  0  0  0  0  0
   -1.6294    4.2066    1.2824 C   0  0  0  0  0  0  0  0  0  0  0  0
    0.4829    4.7058    0.2214 C   0  0  0  0  0  0  0  0  0  0  0  0
   -0.4771    4.9876    1.1934 C   0  0  0  0  0  0  0  0  0  0  0  0
    3.9951    0.9820   -0.3989 C   0  0  0  0  0  0  0  0  0  0  0  0
    3.2840    2.2649   -0.6345 C   0  0  0  0  0  0  0  0  0  0  0  0
    5.3303   -1.4272    0.0430 C   0  0  0  0  0  0  0  0  0  0  0  0
    3.2816   -0.2163   -0.3740 C   0  0  0  0  0  0  0  0  0  0  0  0
    5.3761    0.9758   -0.2028 C   0  0  0  0  0  0  0  0  0  0  0  0
    3.9492   -1.4209   -0.1530 C   0  0  0  0  0  0  0  0  0  0  0  0
    6.0436   -0.2289    0.0182 C   0  0  0  0  0  0  0  0  0  0  0  0
    6.0169   -2.6675    0.2711 C   0  0  0  0  0  0  0  0  0  0  0  0
    5.5819   -3.8682   -0.2534 C   0  0  0  0  0  0  0  0  0  0  0  0
   -7.3322   -3.1641   -1.5051 H   0  0  0  0  0  0  0  0  0  0  0  0
   -8.6116   -2.9846    0.6569 H   0  0  0  0  0  0  0  0  0  0  0  0
   -7.1287   -3.3124    1.5524 H   0  0  0  0  0  0  0  0  0  0  0  0
   -5.0126   -3.8539   -1.5994 H   0  0  0  0  0  0  0  0  0  0  0  0
   -4.9484   -4.1835    0.1385 H   0  0  0  0  0  0  0  0  0  0  0  0
   -7.3985   -0.9216    1.5719 H   0  0  0  0  0  0  0  0  0  0  0  0
   -7.8055   -0.8667   -0.1470 H   0  0  0  0  0  0  0  0  0  0  0  0
   -6.9812   -5.4985   -1.3917 H   0  0  0  0  0  0  0  0  0  0  0  0
   -8.3473   -5.0909   -0.5961 H   0  0  0  0  0  0  0  0  0  0  0  0
   -2.0422    0.6605   -0.3159 H   0  0  0  0  0  0  0  0  0  0  0  0
   -0.9980    2.0639   -1.2964 H   0  0  0  0  0  0  0  0  0  0  0  0
    0.8331    3.1460   -2.6628 H   0  0  0  0  0  0  0  0  0  0  0  0
    1.9849    4.1987   -1.8540 H   0  0  0  0  0  0  0  0  0  0  0  0
   -2.3624    4.4403    2.0501 H   0  0  0  0  0  0  0  0  0  0  0  0
    1.3767    5.3215    0.1654 H   0  0  0  0  0  0  0  0  0  0  0  0
   -0.3264    5.8140    1.8818 H   0  0  0  0  0  0  0  0  0  0  0  0
    1.7915    1.2953   -1.7425 H   0  0  0  0  0  0  0  0  0  0  0  0
    2.2020   -0.2524   -0.4859 H   0  0  0  0  0  0  0  0  0  0  0  0
    5.9502    1.8983   -0.2241 H   0  0  0  0  0  0  0  0  0  0  0  0
    3.3567   -2.3316   -0.1167 H   0  0  0  0  0  0  0  0  0  0  0  0
    7.1212   -0.2091    0.1629 H   0  0  0  0  0  0  0  0  0  0  0  0
    4.7365   -4.1039   -0.8846 H   0  0  0  0  0  0  0  0  0  0  0  0
  1 15  1  0  0  0  0
  1 17  1  0  0  0  0
  2 10  1  0  0  0  0
  2 34  1  0  0  0  0
  3 18  2  0  0  0  0
  4 27  2  0  0  0  0
  5 11  1  0  0  0  0
  5 42  1  0  0  0  0
  5 43  1  0  0  0  0
  6 16  1  0  0  0  0
  6 17  2  0  0  0  0
  7 17  1  0  0  0  0
  7 18  1  0  0  0  0
  7 44  1  0  0  0  0
  8 22  1  0  0  0  0
  8 27  1  0  0  0  0
  8 51  1  0  0  0  0
  9 10  2  0  0  0  0
  9 33  1  0  0  0  0
 11 12  1  0  0  0  0
 11 13  1  0  0  0  0
 11 35  1  0  0  0  0
 12 14  1  0  0  0  0
 12 36  1  0  0  0  0
 12 37  1  0  0  0  0
 13 15  1  0  0  0  0
 13 38  1  0  0  0  0
 13 39  1  0  0  0  0
 14 16  1  0  0  0  0
 14 40  1  0  0  0  0
 14 41  1  0  0  0  0
 15 16  2  0  0  0  0
 18 19  1  0  0  0  0
 19 21  1  0  0  0  0
 19 23  2  0  0  0  0
 20 21  2  0  0  0  0
 20 22  1  0  0  0  0
 20 24  1  0  0  0  0
 21 45  1  0  0  0  0
 22 46  1  0  0  0  0
 22 47  1  0  0  0  0
 23 25  1  0  0  0  0
 23 48  1  0  0  0  0
 24 25  2  0  0  0  0
 24 49  1  0  0  0  0
 25 50  1  0  0  0  0
 26 27  1  0  0  0  0
 26 29  2  0  0  0  0
 26 30  1  0  0  0  0
 28 31  2  0  0  0  0
 28 32  1  0  0  0  0
 28 33  1  0  0  0  0
 29 31  1  0  0  0  0
 29 52  1  0  0  0  0
 30 32  2  0  0  0  0
 30 53  1  0  0  0  0
 31 54  1  0  0  0  0
 32 55  1  0  0  0  0
 33 34  2  0  0  0  0
 34 56  1  0  0  0  0
M  END
> <PUBCHEM_COMPOUND_CID>
84973040

> <PUBCHEM_CONFORMER_RMSD>
1

> <PUBCHEM_CONFORMER_DIVERSEORDER>
1
76
98
26
109
12
43
118
139
9
87
90
149
83
184
86
188
168
185
40
137
68
162
59
8
50
138
89
127
167
95
159
77
33
101
62
126
5
78
44
172
140
116
180
35
136
38
106
121
54
104
28
99
65
64
39
84
193
15
130
69
110
191
34
85
119
72
13
160
7
91
17
169
186
82
96
133
178
11
164
58
148
97
71
117
174
111
23
171
151
94
81
30
73
131
22
100
24
25
70
187
194
182
158
20
128
175
114
37
41
105
173
125
32
152
56
29
115
163
79
112
4
61
141
150
192
108
102
36
63
183
53
52
66
55
57
177
153
88
176
74
14
47
179
123
132
10
93
154
170
189
161
120
51
27
145
143
45
75
181
147
165
107
67
113
190
80
155
157
49
134
2
144
92
124
135
156
19
166
142
129
146
46
3
42
16
48
60
122
21
103
6
31
18

> <PUBCHEM_MMFF94_PARTIAL_CHARGES>
46
1 -0.08
10 -0.22
11 0.27
13 0.18
14 0.18
15 -0.14
16 0.05
17 0.44
18 0.54
19 0.09
2 0.18
20 -0.14
21 -0.15
22 0.44
23 -0.15
24 -0.15
25 -0.15
26 0.09
27 0.54
28 0.05
29 -0.15
3 -0.57
30 -0.15
31 -0.15
32 -0.15
33 0.17
34 -0.11
4 -0.57
42 0.36
43 0.36
44 0.37
45 0.15
48 0.15
49 0.15
5 -0.99
50 0.15
51 0.37
52 0.15
53 0.15
54 0.15
55 0.15
56 0.15
6 -0.57
7 -0.49
8 -0.73
9 -0.23

> <PUBCHEM_EFFECTIVE_ROTOR_COUNT>
8.8

> <PUBCHEM_PHARMACOPHORE_FEATURES>
11
1 3 acceptor
1 4 acceptor
1 5 cation
1 5 donor
1 7 donor
1 8 donor
5 1 6 15 16 17 rings
5 2 9 10 33 34 rings
6 11 12 13 14 15 16 rings
6 19 20 21 23 24 25 rings
6 26 28 29 30 31 32 rings

> <PUBCHEM_HEAVY_ATOM_COUNT>
34

> <PUBCHEM_ATOM_DEF_STEREO_COUNT>
1

> <PUBCHEM_ATOM_UDEF_STEREO_COUNT>
0

> <PUBCHEM_BOND_DEF_STEREO_COUNT>
0

> <PUBCHEM_BOND_UDEF_STEREO_COUNT>
0

> <PUBCHEM_ISOTOPIC_ATOM_COUNT>
0

> <PUBCHEM_COMPONENT_COUNT>
1

> <PUBCHEM_CACTVS_TAUTO_COUNT>
6

> <PUBCHEM_CONFORMER_ID>
051095F000000001

> <PUBCHEM_MMFF94_ENERGY>
69.166

> <PUBCHEM_FEATURE_SELFOVERLAP>
55.891

> <PUBCHEM_SHAPE_FINGERPRINT>
10556698 54 12180421230199192863
10622 236 18408887334372978580
11399510 152 17916851462160499528
11409948 35 18336264669991994463
11497681 19 18335144151436106852
11607047 403 18268137846913234648
117089 54 18409173203217511282
11761917 116 18337116675275588878
11801155 225 17326332126150995714
12559416 138 18343292691537906190
12841400 136 18335137583424191771
131258 38 18120926471819098572
13553639 21 18265346164814575059
1361 4 18339644447964549018
13947947 140 18408328800125784223
14040222 275 18263947508619362126
14344974 204 18266458694888950158
15064981 113 12829495805798718016
15419008 145 18266449911691418642
15538507 19 18123748661340116706
15569901 51 18409448111221381539
15728490 83 18410293597218295359
15803439 3 16739993395510834565
16628084 112 18336267950892873447
16728300 4 18413671322961815765
16728433 281 10735002094392667882
17324776 126 18335699420981311210
17492 89 18409730651454839972
19303781 99 17822583698691288112
19319366 153 17834401489932573460
19841028 212 18333731325183857507
208703 8 18335414638958169602
21360442 33 18193835080010990111
21362267 20 17759516674482131634
23523787 8 16886069029872270772
23523788 1 18124566886432187056
23569914 152 18124844986328746893
23569943 247 18337676438389799803
24893989 43 17770513237271164638
260245 28 18196369440569113631
2835820 82 18265897037678201003
32027 91 18341324600553423005
3504750 166 18267027159105275265
4017518 198 17399235248645569060
44344687 77 18041571355495892171
4756088 132 18053372477794734807
484985 159 17974282132095850356
50080093 196 17463407213992513450
6057620 51 18334301989879626822
6058803 2 18265077797803979036
6201320 221 18268133435760249847
6201320 77 17317077885261849443
6201460 15 18409733932836162910
6441014 3 18339641144385923898
6697151 62 17774435127282902685
7970288 3 18411419548411745757
9555976 147 17845948350841206569
96874 4 18410855503547593095

> <PUBCHEM_SHAPE_MULTIPOLES>
665.78
23.26
9.11
1.05
2.19
0.43
0.05
-44.56
-3.34
-0.99
-0.98
-0.1
0.6
-3.93

> <PUBCHEM_SHAPE_SELFOVERLAP>
1430.798

> <PUBCHEM_SHAPE_VOLUME>
368.9

> <PUBCHEM_COORDINATE_TYPE>
2
5
10

$$$$
88553160
  -OEChem-05102415103D

 58 62  0     1  0  0  0  0  0999 V2000
   -2.6421   -0.6055    0.3070 S   0  0  0  0  0  0  0  0  0  0  0  0
   -2.0910    3.9774   -0.4832 O   0  0  0  0  0  0  0  0  0  0  0  0
    5.2048    1.3695   -0.2887 O   0  0  0  0  0  0  0  0  0  0  0  0
   -7.4491   -2.7686    0.2756 N   0  0  0  0  0  0  0  0  0  0  0  0
   -3.9099    1.5911   -0.2262 N   0  0  0  0  0  0  0  0  0  0  0  0
   -1.5130    1.7407   -0.0138 N   0  0  0  0  0  0  0  0  0  0  0  0
    3.4558    1.0799    1.2067 N   0  0  0  0  0  0  0  0  0  0  0  0
   -0.2031   -4.1120   -0.0414 N   0  0  0  0  0  0  0  0  0  0  0  0
    0.3879   -5.2831    0.2510 N   0  0  0  0  0  0  0  0  0  0  0  0
   -6.6359   -1.5689    0.4644 C   0  0  2  0  0  0  0  0  0  0  0  0
   -7.0840   -0.4632   -0.5185 C   0  0  0  0  0  0  0  0  0  0  0  0
   -5.1418   -1.9229    0.2814 C   0  0  0  0  0  0  0  0  0  0  0  0
   -6.2962    0.8438   -0.3065 C   0  0  0  0  0  0  0  0  0  0  0  0
   -4.3356   -0.6737    0.1544 C   0  0  0  0  0  0  0  0  0  0  0  0
   -4.8413    0.5780   -0.1349 C   0  0  0  0  0  0  0  0  0  0  0  0
   -2.7145    1.0827   -0.0130 C   0  0  0  0  0  0  0  0  0  0  0  0
   -1.2532    3.1151   -0.2407 C   0  0  0  0  0  0  0  0  0  0  0  0
    0.1687    3.5382   -0.1476 C   0  0  0  0  0  0  0  0  0  0  0  0
    2.3918    3.2220    0.7443 C   0  0  0  0  0  0  0  0  0  0  0  0
    1.0576    2.8246    0.6565 C   0  0  0  0  0  0  0  0  0  0  0  0
    3.3422    2.4601    1.6047 C   0  0  0  0  0  0  0  0  0  0  0  0
    0.6140    4.6493   -0.8639 C   0  0  0  0  0  0  0  0  0  0  0  0
    2.8371    4.3332    0.0281 C   0  0  0  0  0  0  0  0  0  0  0  0
    1.9482    5.0469   -0.7758 C   0  0  0  0  0  0  0  0  0  0  0  0
    4.3634   -0.8053   -0.0436 C   0  0  0  0  0  0  0  0  0  0  0  0
    3.1492   -2.8869   -0.2182 C   0  0  0  0  0  0  0  0  0  0  0  0
    4.3922    0.6444    0.2791 C   0  0  0  0  0  0  0  0  0  0  0  0
    3.1759   -1.5258    0.0856 C   0  0  0  0  0  0  0  0  0  0  0  0
    1.9266   -3.6287   -0.0852 C   0  0  0  0  0  0  0  0  0  0  0  0
    5.5243   -1.4463   -0.4767 C   0  0  0  0  0  0  0  0  0  0  0  0
    4.3101   -3.5278   -0.6513 C   0  0  0  0  0  0  0  0  0  0  0  0
    5.4975   -2.8074   -0.7807 C   0  0  0  0  0  0  0  0  0  0  0  0
    0.6745   -3.0892   -0.2515 C   0  0  0  0  0  0  0  0  0  0  0  0
    1.6888   -4.9816    0.2227 C   0  0  0  0  0  0  0  0  0  0  0  0
   -6.7918   -1.2042    1.4885 H   0  0  0  0  0  0  0  0  0  0  0  0
   -8.1550   -0.2550   -0.4047 H   0  0  0  0  0  0  0  0  0  0  0  0
   -6.9353   -0.8097   -1.5505 H   0  0  0  0  0  0  0  0  0  0  0  0
   -5.0013   -2.5202   -0.6293 H   0  0  0  0  0  0  0  0  0  0  0  0
   -4.7958   -2.5274    1.1287 H   0  0  0  0  0  0  0  0  0  0  0  0
   -6.6674    1.3499    0.5927 H   0  0  0  0  0  0  0  0  0  0  0  0
   -6.4631    1.5165   -1.1548 H   0  0  0  0  0  0  0  0  0  0  0  0
   -8.4290   -2.5503    0.4511 H   0  0  0  0  0  0  0  0  0  0  0  0
   -7.1835   -3.4744    0.9612 H   0  0  0  0  0  0  0  0  0  0  0  0
   -0.7239    1.1209    0.1443 H   0  0  0  0  0  0  0  0  0  0  0  0
    0.7299    1.9789    1.2547 H   0  0  0  0  0  0  0  0  0  0  0  0
    4.3404    2.9132    1.5946 H   0  0  0  0  0  0  0  0  0  0  0  0
    2.9922    2.4779    2.6433 H   0  0  0  0  0  0  0  0  0  0  0  0
   -0.0612    5.2156   -1.4999 H   0  0  0  0  0  0  0  0  0  0  0  0
    3.8737    4.6546    0.0854 H   0  0  0  0  0  0  0  0  0  0  0  0
    2.2953    5.9112   -1.3345 H   0  0  0  0  0  0  0  0  0  0  0  0
    2.8461    0.4196    1.6769 H   0  0  0  0  0  0  0  0  0  0  0  0
    2.2634   -1.0288    0.4023 H   0  0  0  0  0  0  0  0  0  0  0  0
    6.4599   -0.9030   -0.5797 H   0  0  0  0  0  0  0  0  0  0  0  0
    4.3150   -4.5863   -0.8999 H   0  0  0  0  0  0  0  0  0  0  0  0
    6.4014   -3.3062   -1.1182 H   0  0  0  0  0  0  0  0  0  0  0  0
    0.3218   -2.0990   -0.5042 H   0  0  0  0  0  0  0  0  0  0  0  0
    2.4032   -5.7657    0.4316 H   0  0  0  0  0  0  0  0  0  0  0  0
   -1.2141   -4.0818   -0.0833 H   0  0  0  0  0  0  0  0  0  0  0  0
  1 14  1  0  0  0  0
  1 16  1  0  0  0  0
  2 17  2  0  0  0  0
  3 27  2  0  0  0  0
  4 10  1  0  0  0  0
  4 42  1  0  0  0  0
  4 43  1  0  0  0  0
  5 15  1  0  0  0  0
  5 16  2  0  0  0  0
  6 16  1  0  0  0  0
  6 17  1  0  0  0  0
  6 44  1  0  0  0  0
  7 21  1  0  0  0  0
  7 27  1  0  0  0  0
  7 51  1  0  0  0  0
  8  9  1  0  0  0  0
  8 33  1  0  0  0  0
  8 58  1  0  0  0  0
  9 34  2  0  0  0  0
 10 11  1  0  0  0  0
 10 12  1  0  0  0  0
 10 35  1  0  0  0  0
 11 13  1  0  0  0  0
 11 36  1  0  0  0  0
 11 37  1  0  0  0  0
 12 14  1  0  0  0  0
 12 38  1  0  0  0  0
 12 39  1  0  0  0  0
 13 15  1  0  0  0  0
 13 40  1  0  0  0  0
 13 41  1  0  0  0  0
 14 15  2  0  0  0  0
 17 18  1  0  0  0  0
 18 20  1  0  0  0  0
 18 22  2  0  0  0  0
 19 20  2  0  0  0  0
 19 21  1  0  0  0  0
 19 23  1  0  0  0  0
 20 45  1  0  0  0  0
 21 46  1  0  0  0  0
 21 47  1  0  0  0  0
 22 24  1  0  0  0  0
 22 48  1  0  0  0  0
 23 24  2  0  0  0  0
 23 49  1  0  0  0  0
 24 50  1  0  0  0  0
 25 27  1  0  0  0  0
 25 28  1  0  0  0  0
 25 30  2  0  0  0  0
 26 28  2  0  0  0  0
 26 29  1  0  0  0  0
 26 31  1  0  0  0  0
 28 52  1  0  0  0  0
 29 33  2  0  0  0  0
 29 34  1  0  0  0  0
 30 32  1  0  0  0  0
 30 53  1  0  0  0  0
 31 32  2  0  0  0  0
 31 54  1  0  0  0  0
 32 55  1  0  0  0  0
 33 56  1  0  0  0  0
 34 57  1  0  0  0  0
M  END
> <PUBCHEM_COMPOUND_CID>
88553160

> <PUBCHEM_CONFORMER_RMSD>
1.2

> <PUBCHEM_CONFORMER_DIVERSEORDER>
1
214
109
51
128
225
179
62
88
155
115
107
12
78
17
157
52
134
96
64
147
56
222
15
74
75
148
34
137
146
43
174
229
27
38
218
72
193
91
32
120
141
101
138
182
217
203
46
205
26
13
186
127
124
48
163
116
99
104
19
169
135
139
224
151
49
73
40
59
7
211
126
83
184
86
36
185
210
209
106
172
100
33
149
226
10
117
79
76
123
87
16
171
112
204
55
93
98
178
213
136
92
31
81
94
29
190
223
130
144
121
97
41
153
161
177
158
108
164
220
45
71
156
132
102
152
206
89
194
105
188
21
69
183
25
11
154
122
228
5
110
77
160
216
143
65
166
221
85
103
84
111
30
70
195
24
113
20
63
35
37
197
54
165
90
173
199
6
150
58
202
162
200
167
180
119
208
145
61
189
22
192
170
95
168
140
159
176
82
131
181
60
53
68
191
133
8
39
212
47
28
42
175
129
125
67
201
114
187
80
215
196
4
23
18
219
44
198
57
207
227
14
3
50
66
118
2
142
9

> <PUBCHEM_MMFF94_PARTIAL_CHARGES>
48
1 -0.08
10 0.27
12 0.18
13 0.18
14 -0.14
15 0.05
16 0.44
17 0.54
18 0.09
19 -0.14
2 -0.57
20 -0.15
21 0.44
22 -0.15
23 -0.15
24 -0.15
25 0.09
26 0.05
27 0.54
28 -0.15
29 -0.05
3 -0.57
30 -0.15
31 -0.15
32 -0.15
33 -0.3
34 0.14
4 -0.99
42 0.36
43 0.36
44 0.37
45 0.15
48 0.15
49 0.15
5 -0.57
50 0.15
51 0.37
52 0.15
53 0.15
54 0.15
55 0.15
56 0.15
57 0.15
58 0.27
6 -0.49
7 -0.73
8 0.3
9 -0.71

> <PUBCHEM_EFFECTIVE_ROTOR_COUNT>
8.8

> <PUBCHEM_PHARMACOPHORE_FEATURES>
13
1 2 acceptor
1 3 acceptor
1 4 cation
1 4 donor
1 6 donor
1 7 donor
1 8 donor
1 9 acceptor
5 1 5 14 15 16 rings
5 8 9 29 33 34 rings
6 10 11 12 13 14 15 rings
6 18 19 20 22 23 24 rings
6 25 26 28 30 31 32 rings

> <PUBCHEM_HEAVY_ATOM_COUNT>
34

> <PUBCHEM_ATOM_DEF_STEREO_COUNT>
1

> <PUBCHEM_ATOM_UDEF_STEREO_COUNT>
0

> <PUBCHEM_BOND_DEF_STEREO_COUNT>
0

> <PUBCHEM_BOND_UDEF_STEREO_COUNT>
0

> <PUBCHEM_ISOTOPIC_ATOM_COUNT>
0

> <PUBCHEM_COMPONENT_COUNT>
1

> <PUBCHEM_CACTVS_TAUTO_COUNT>
6

> <PUBCHEM_CONFORMER_ID>
054736C800000001

> <PUBCHEM_MMFF94_ENERGY>
68.1104

> <PUBCHEM_FEATURE_SELFOVERLAP>
66.042

> <PUBCHEM_SHAPE_FINGERPRINT>
10075450 59 17986128318383170143
10316853 100 18338800129733392146
11273773 38 18192997247644816868
117089 54 18341619153130011118
11828042 200 18193854647962119214
12202916 173 18187637051097075512
1361 2 18338795736002798235
13989917 61 18266742557376457755
14394314 77 18122352272919654633
14725015 67 18337096862105954466
15320467 1 18410575114786236078
15400415 2 17762619890778097469
15406563 47 17825658122630251067
15419008 42 18044907179079873613
15483637 11 17834115243251658700
15721738 15 17324612524360516749
15803439 3 17030822313287733612
15927050 60 17980203315664402182
17852330 134 18267279021352560743
19301676 85 17689147912711556461
19611394 137 18115605845386628667
1979834 28 18269263733022539296
20156587 191 18261948541620936725
20764821 26 17977662344809342348
21133410 58 18262785385242700831
23559900 14 18410005547032036193
325973 47 18337676424523299690
3882209 13 17325729649227614890
404807 14 18124040035820675795
437795 96 18190749832961586635
463206 1 17765150567212733288
5047190 2 18058433461165996103
5309563 4 18339643330434191028
5776283 40 18266751349801980924
6176135 31 18195801001736171641
636783 129 18269579238169900571
6422251 121 18337105644997446131
86090 222 18411134749198647442
9831232 110 18408321116603468773
9961470 85 18125152994426617994

> <PUBCHEM_SHAPE_MULTIPOLES>
661.93
15.58
8.72
0.87
24.62
0.83
-0.13
-10.38
0.72
-7.89
0.89
-0.52
0.42
1.77

> <PUBCHEM_SHAPE_SELFOVERLAP>
1440.883

> <PUBCHEM_SHAPE_VOLUME>
362.8

> <PUBCHEM_COORDINATE_TYPE>
2
5
10

$$$$
88553159
  -OEChem-05102415103D

 58 62  0     1  0  0  0  0  0999 V2000
   -2.6417    0.6032   -0.3153 S   0  0  0  0  0  0  0  0  0  0  0  0
   -2.0913   -3.9770    0.4908 O   0  0  0  0  0  0  0  0  0  0  0  0
    5.2042   -1.3681    0.2977 O   0  0  0  0  0  0  0  0  0  0  0  0
   -7.4395    2.7837   -0.2061 N   0  0  0  0  0  0  0  0  0  0  0  0
   -3.9105   -1.5919    0.2216 N   0  0  0  0  0  0  0  0  0  0  0  0
   -1.5132   -1.7420    0.0136 N   0  0  0  0  0  0  0  0  0  0  0  0
    3.4574   -1.0847   -1.2015 N   0  0  0  0  0  0  0  0  0  0  0  0
   -0.2046    4.1110    0.0204 N   0  0  0  0  0  0  0  0  0  0  0  0
    0.3864    5.2812   -0.2755 N   0  0  0  0  0  0  0  0  0  0  0  0
   -6.5639    1.7023    0.2412 C   0  0  1  0  0  0  0  0  0  0  0  0
   -7.1519    0.3353   -0.1772 C   0  0  0  0  0  0  0  0  0  0  0  0
   -5.1452    1.9133   -0.3368 C   0  0  0  0  0  0  0  0  0  0  0  0
   -6.2932   -0.8374    0.3335 C   0  0  0  0  0  0  0  0  0  0  0  0
   -4.3347    0.6730   -0.1589 C   0  0  0  0  0  0  0  0  0  0  0  0
   -4.8423   -0.5802    0.1199 C   0  0  0  0  0  0  0  0  0  0  0  0
   -2.7148   -1.0844    0.0084 C   0  0  0  0  0  0  0  0  0  0  0  0
   -1.2534   -3.1155    0.2463 C   0  0  0  0  0  0  0  0  0  0  0  0
    0.1688   -3.5385    0.1570 C   0  0  0  0  0  0  0  0  0  0  0  0
    2.3932   -3.2253   -0.7325 C   0  0  0  0  0  0  0  0  0  0  0  0
    1.0588   -2.8279   -0.6483 C   0  0  0  0  0  0  0  0  0  0  0  0
    3.3448   -2.4665   -1.5944 C   0  0  0  0  0  0  0  0  0  0  0  0
    0.6132   -4.6468    0.8784 C   0  0  0  0  0  0  0  0  0  0  0  0
    2.8378   -4.3335   -0.0112 C   0  0  0  0  0  0  0  0  0  0  0  0
    1.9476   -5.0444    0.7940 C   0  0  0  0  0  0  0  0  0  0  0  0
    4.3626    0.8057    0.0428 C   0  0  0  0  0  0  0  0  0  0  0  0
    3.1476    2.8875    0.2074 C   0  0  0  0  0  0  0  0  0  0  0  0
    4.3923   -0.6454   -0.2741 C   0  0  0  0  0  0  0  0  0  0  0  0
    3.1751    1.5252   -0.0911 C   0  0  0  0  0  0  0  0  0  0  0  0
    1.9251    3.6286    0.0694 C   0  0  0  0  0  0  0  0  0  0  0  0
    5.5226    1.4485    0.4752 C   0  0  0  0  0  0  0  0  0  0  0  0
    4.3076    3.5304    0.6398 C   0  0  0  0  0  0  0  0  0  0  0  0
    5.4950    2.8109    0.7739 C   0  0  0  0  0  0  0  0  0  0  0  0
    0.6728    3.0893    0.2359 C   0  0  0  0  0  0  0  0  0  0  0  0
    1.6874    4.9802   -0.2442 C   0  0  0  0  0  0  0  0  0  0  0  0
   -6.5093    1.7336    1.3376 H   0  0  0  0  0  0  0  0  0  0  0  0
   -7.2148    0.2848   -1.2730 H   0  0  0  0  0  0  0  0  0  0  0  0
   -8.1738    0.2203    0.2049 H   0  0  0  0  0  0  0  0  0  0  0  0
   -4.6658    2.7680    0.1556 H   0  0  0  0  0  0  0  0  0  0  0  0
   -5.2017    2.1395   -1.4099 H   0  0  0  0  0  0  0  0  0  0  0  0
   -6.5946   -1.7620   -0.1709 H   0  0  0  0  0  0  0  0  0  0  0  0
   -6.4691   -0.9758    1.4070 H   0  0  0  0  0  0  0  0  0  0  0  0
   -7.0731    3.6778    0.1179 H   0  0  0  0  0  0  0  0  0  0  0  0
   -8.3599    2.6782    0.2185 H   0  0  0  0  0  0  0  0  0  0  0  0
   -0.7239   -1.1226   -0.1453 H   0  0  0  0  0  0  0  0  0  0  0  0
    0.7319   -1.9846   -1.2503 H   0  0  0  0  0  0  0  0  0  0  0  0
    4.3430   -2.9193   -1.5810 H   0  0  0  0  0  0  0  0  0  0  0  0
    2.9964   -2.4884   -2.6334 H   0  0  0  0  0  0  0  0  0  0  0  0
   -0.0629   -5.2107    1.5155 H   0  0  0  0  0  0  0  0  0  0  0  0
    3.8745   -4.6548   -0.0657 H   0  0  0  0  0  0  0  0  0  0  0  0
    2.2941   -5.9064    1.3566 H   0  0  0  0  0  0  0  0  0  0  0  0
    2.8484   -0.4264   -1.6753 H   0  0  0  0  0  0  0  0  0  0  0  0
    2.2633    1.0268   -0.4073 H   0  0  0  0  0  0  0  0  0  0  0  0
    6.4582    0.9059    0.5818 H   0  0  0  0  0  0  0  0  0  0  0  0
    4.3118    4.5898    0.8843 H   0  0  0  0  0  0  0  0  0  0  0  0
    6.3982    3.3112    1.1110 H   0  0  0  0  0  0  0  0  0  0  0  0
    0.3200    2.1000    0.4921 H   0  0  0  0  0  0  0  0  0  0  0  0
    2.4019    5.7636   -0.4550 H   0  0  0  0  0  0  0  0  0  0  0  0
   -1.2157    4.0808    0.0609 H   0  0  0  0  0  0  0  0  0  0  0  0
  1 14  1  0  0  0  0
  1 16  1  0  0  0  0
  2 17  2  0  0  0  0
  3 27  2  0  0  0  0
  4 10  1  0  0  0  0
  4 42  1  0  0  0  0
  4 43  1  0  0  0  0
  5 15  1  0  0  0  0
  5 16  2  0  0  0  0
  6 16  1  0  0  0  0
  6 17  1  0  0  0  0
  6 44  1  0  0  0  0
  7 21  1  0  0  0  0
  7 27  1  0  0  0  0
  7 51  1  0  0  0  0
  8  9  1  0  0  0  0
  8 33  1  0  0  0  0
  8 58  1  0  0  0  0
  9 34  2  0  0  0  0
 10 11  1  0  0  0  0
 10 12  1  0  0  0  0
 10 35  1  0  0  0  0
 11 13  1  0  0  0  0
 11 36  1  0  0  0  0
 11 37  1  0  0  0  0
 12 14  1  0  0  0  0
 12 38  1  0  0  0  0
 12 39  1  0  0  0  0
 13 15  1  0  0  0  0
 13 40  1  0  0  0  0
 13 41  1  0  0  0  0
 14 15  2  0  0  0  0
 17 18  1  0  0  0  0
 18 20  1  0  0  0  0
 18 22  2  0  0  0  0
 19 20  2  0  0  0  0
 19 21  1  0  0  0  0
 19 23  1  0  0  0  0
 20 45  1  0  0  0  0
 21 46  1  0  0  0  0
 21 47  1  0  0  0  0
 22 24  1  0  0  0  0
 22 48  1  0  0  0  0
 23 24  2  0  0  0  0
 23 49  1  0  0  0  0
 24 50  1  0  0  0  0
 25 27  1  0  0  0  0
 25 28  1  0  0  0  0
 25 30  2  0  0  0  0
 26 28  2  0  0  0  0
 26 29  1  0  0  0  0
 26 31  1  0  0  0  0
 28 52  1  0  0  0  0
 29 33  2  0  0  0  0
 29 34  1  0  0  0  0
 30 32  1  0  0  0  0
 30 53  1  0  0  0  0
 31 32  2  0  0  0  0
 31 54  1  0  0  0  0
 32 55  1  0  0  0  0
 33 56  1  0  0  0  0
 34 57  1  0  0  0  0
M  END
> <PUBCHEM_COMPOUND_CID>
88553159

> <PUBCHEM_CONFORMER_RMSD>
1.2

> <PUBCHEM_CONFORMER_DIVERSEORDER>
1
194
145
106
93
120
76
43
170
85
51
46
19
56
16
44
111
115
220
139
102
183
195
165
222
188
38
79
182
119
224
39
140
126
136
117
125
166
28
21
75
48
203
131
134
225
129
30
26
94
55
77
14
123
133
202
81
209
137
141
138
158
59
13
50
84
151
217
192
207
107
35
168
108
27
88
174
112
212
178
80
87
96
97
71
191
109
82
53
122
186
101
104
60
118
41
144
58
36
153
146
197
148
7
116
99
89
54
74
69
143
33
92
18
29
12
95
181
147
63
175
86
219
31
83
37
67
172
70
127
185
161
62
10
184
156
113
154
72
162
213
90
121
128
211
204
6
78
214
32
152
210
149
20
176
5
193
215
171
187
64
205
132
180
221
130
47
167
114
179
201
25
100
189
216
157
206
190
61
22
155
110
124
23
65
223
208
160
103
24
177
159
105
173
199
91
218
45
17
163
40
196
4
11
68
8
169
15
52
49
200
150
42
34
73
198
57
66
2
135
98
164
142
9
3

> <PUBCHEM_MMFF94_PARTIAL_CHARGES>
48
1 -0.08
10 0.27
12 0.18
13 0.18
14 -0.14
15 0.05
16 0.44
17 0.54
18 0.09
19 -0.14
2 -0.57
20 -0.15
21 0.44
22 -0.15
23 -0.15
24 -0.15
25 0.09
26 0.05
27 0.54
28 -0.15
29 -0.05
3 -0.57
30 -0.15
31 -0.15
32 -0.15
33 -0.3
34 0.14
4 -0.99
42 0.36
43 0.36
44 0.37
45 0.15
48 0.15
49 0.15
5 -0.57
50 0.15
51 0.37
52 0.15
53 0.15
54 0.15
55 0.15
56 0.15
57 0.15
58 0.27
6 -0.49
7 -0.73
8 0.3
9 -0.71

> <PUBCHEM_EFFECTIVE_ROTOR_COUNT>
8.8

> <PUBCHEM_PHARMACOPHORE_FEATURES>
13
1 2 acceptor
1 3 acceptor
1 4 cation
1 4 donor
1 6 donor
1 7 donor
1 8 donor
1 9 acceptor
5 1 5 14 15 16 rings
5 8 9 29 33 34 rings
6 10 11 12 13 14 15 rings
6 18 19 20 22 23 24 rings
6 25 26 28 30 31 32 rings

> <PUBCHEM_HEAVY_ATOM_COUNT>
34

> <PUBCHEM_ATOM_DEF_STEREO_COUNT>
1

> <PUBCHEM_ATOM_UDEF_STEREO_COUNT>
0

> <PUBCHEM_BOND_DEF_STEREO_COUNT>
0

> <PUBCHEM_BOND_UDEF_STEREO_COUNT>
0

> <PUBCHEM_ISOTOPIC_ATOM_COUNT>
0

> <PUBCHEM_COMPONENT_COUNT>
1

> <PUBCHEM_CACTVS_TAUTO_COUNT>
6

> <PUBCHEM_CONFORMER_ID>
054736C700000001

> <PUBCHEM_MMFF94_ENERGY>
68.1062

> <PUBCHEM_FEATURE_SELFOVERLAP>
66.042

> <PUBCHEM_SHAPE_FINGERPRINT>
10049733 57 18189915256512049795
10439779 11 18124021584699279008
10675989 125 18410856517117417328
10864689 126 18411147913374019686
11273773 38 18192717963043736444
11828042 226 18047747097893859709
12173638 102 16810948179771374357
12677640 9 17981044429702269127
12925494 130 18410291441308347131
13165053 371 18337957780196078421
1361 2 18411136956638088872
14117953 113 18413110589391146068
14725015 67 18339074870823855498
15274700 259 17316466320885523037
15320467 1 18410573955113437136
15351339 4 17973720281948974977
15400415 2 18194681690500103897
15444296 121 17902221545335674384
15483637 11 17834394897151679842
15773879 134 18341323492546910805
15890870 6 18335988631736473022
15927050 60 18341329002752463759
20580484 21 18267305340475663521
20715895 44 18413106182369643554
21049683 118 17530966843917329091
21133410 38 17916322566448698073
21344244 78 17538548925346418490
24204213 92 17630342835735660558
325973 47 17907298006909551116
354706 109 17910651478756746088
3882209 13 17470690374856699786
4573279 73 17984132945317810247
5109719 28 18339089280318003091
5265222 85 18121226638383497429
6371009 1 17836348716498076814
99344 41 18412822508649238833

> <PUBCHEM_SHAPE_MULTIPOLES>
661.93
15.57
8.73
0.86
24.62
0.8
-0.12
-10.33
0.65
-7.83
0.94
-0.6
0.44
1.55

> <PUBCHEM_SHAPE_SELFOVERLAP>
1440.868

> <PUBCHEM_SHAPE_VOLUME>
362.8

> <PUBCHEM_COORDINATE_TYPE>
2
5
10

$$$$
84973041
  -OEChem-05102415103D

 56 60  0     1  0  0  0  0  0999 V2000
   -3.0299   -1.1752   -0.4139 S   0  0  0  0  0  0  0  0  0  0  0  0
    5.9571   -1.0636    1.2632 S   0  0  0  0  0  0  0  0  0  0  0  0
   -3.3963    3.3953    0.5391 O   0  0  0  0  0  0  0  0  0  0  0  0
    4.5019    3.0397    0.0161 O   0  0  0  0  0  0  0  0  0  0  0  0
   -7.2556   -4.3145   -0.1390 N   0  0  0  0  0  0  0  0  0  0  0  0
   -4.6932    0.6906    0.2708 N   0  0  0  0  0  0  0  0  0  0  0  0
   -2.3955    1.3448   -0.0535 N   0  0  0  0  0  0  0  0  0  0  0  0
    2.8371    1.9112   -1.1390 N   0  0  0  0  0  0  0  0  0  0  0  0
    3.9352   -0.4928   -0.2429 N   0  0  0  0  0  0  0  0  0  0  0  0
    3.6906   -5.5942   -0.2250 N   0  0  0  0  0  0  0  0  0  0  0  0
   -6.5991   -3.0855    0.3029 C   0  0  2  0  0  0  0  0  0  0  0  0
   -7.4813   -1.8616   -0.0332 C   0  0  0  0  0  0  0  0  0  0  0  0
   -5.2033   -2.9798   -0.3543 C   0  0  0  0  0  0  0  0  0  0  0  0
   -6.8565   -0.5489    0.4771 C   0  0  0  0  0  0  0  0  0  0  0  0
   -4.6592   -1.6023   -0.1724 C   0  0  0  0  0  0  0  0  0  0  0  0
   -5.3989   -0.4907    0.1792 C   0  0  0  0  0  0  0  0  0  0  0  0
   -3.4327    0.4506   -0.0229 C   0  0  0  0  0  0  0  0  0  0  0  0
   -2.4134    2.7353    0.2187 C   0  0  0  0  0  0  0  0  0  0  0  0
   -1.1071    3.4386    0.1274 C   0  0  0  0  0  0  0  0  0  0  0  0
    1.1201    3.6047   -0.7943 C   0  0  0  0  0  0  0  0  0  0  0  0
   -0.1059    2.9449   -0.7091 C   0  0  0  0  0  0  0  0  0  0  0  0
    2.1912    3.0766   -1.6876 C   0  0  0  0  0  0  0  0  0  0  0  0
   -0.8821    4.5922    0.8790 C   0  0  0  0  0  0  0  0  0  0  0  0
    1.3452    4.7581   -0.0427 C   0  0  0  0  0  0  0  0  0  0  0  0
    0.3441    5.2517    0.7940 C   0  0  0  0  0  0  0  0  0  0  0  0
    3.9554    1.9926   -0.3207 C   0  0  0  0  0  0  0  0  0  0  0  0
    4.5191    0.6983    0.1420 C   0  0  0  0  0  0  0  0  0  0  0  0
    4.6096   -1.4879    0.2891 C   0  0  0  0  0  0  0  0  0  0  0  0
    5.6253    0.5911    0.9585 C   0  0  0  0  0  0  0  0  0  0  0  0
    4.2968   -2.8864    0.1132 C   0  0  0  0  0  0  0  0  0  0  0  0
    5.2669   -3.8539    0.3507 C   0  0  0  0  0  0  0  0  0  0  0  0
    3.0239   -3.2713   -0.2931 C   0  0  0  0  0  0  0  0  0  0  0  0
    4.9166   -5.1820    0.1687 C   0  0  0  0  0  0  0  0  0  0  0  0
    2.7738   -4.6256   -0.4462 C   0  0  0  0  0  0  0  0  0  0  0  0
   -6.4759   -3.1331    1.3931 H   0  0  0  0  0  0  0  0  0  0  0  0
   -7.6164   -1.7966   -1.1217 H   0  0  0  0  0  0  0  0  0  0  0  0
   -8.4810   -1.9730    0.4046 H   0  0  0  0  0  0  0  0  0  0  0  0
   -5.2735   -3.1854   -1.4308 H   0  0  0  0  0  0  0  0  0  0  0  0
   -4.5293   -3.7275    0.0809 H   0  0  0  0  0  0  0  0  0  0  0  0
   -6.9943   -0.4791    1.5628 H   0  0  0  0  0  0  0  0  0  0  0  0
   -7.3723    0.3051    0.0247 H   0  0  0  0  0  0  0  0  0  0  0  0
   -8.1517   -4.4149    0.3359 H   0  0  0  0  0  0  0  0  0  0  0  0
   -6.6934   -5.1201    0.1323 H   0  0  0  0  0  0  0  0  0  0  0  0
   -1.5054    0.9065   -0.2700 H   0  0  0  0  0  0  0  0  0  0  0  0
   -0.2622    2.0689   -1.3322 H   0  0  0  0  0  0  0  0  0  0  0  0
    1.7651    2.7914   -2.6566 H   0  0  0  0  0  0  0  0  0  0  0  0
    2.9469    3.8443   -1.8919 H   0  0  0  0  0  0  0  0  0  0  0  0
   -1.6464    4.9905    1.5410 H   0  0  0  0  0  0  0  0  0  0  0  0
    2.2960    5.2815   -0.0973 H   0  0  0  0  0  0  0  0  0  0  0  0
    0.5201    6.1488    1.3805 H   0  0  0  0  0  0  0  0  0  0  0  0
    2.4488    0.9985   -1.3597 H   0  0  0  0  0  0  0  0  0  0  0  0
    6.2402    1.3732    1.3813 H   0  0  0  0  0  0  0  0  0  0  0  0
    6.2883   -3.6423    0.6449 H   0  0  0  0  0  0  0  0  0  0  0  0
    2.2347   -2.5521   -0.4869 H   0  0  0  0  0  0  0  0  0  0  0  0
    5.6382   -5.9753    0.3346 H   0  0  0  0  0  0  0  0  0  0  0  0
    1.7969   -4.9780   -0.7604 H   0  0  0  0  0  0  0  0  0  0  0  0
  1 15  1  0  0  0  0
  1 17  1  0  0  0  0
  2 28  1  0  0  0  0
  2 29  1  0  0  0  0
  3 18  2  0  0  0  0
  4 26  2  0  0  0  0
  5 11  1  0  0  0  0
  5 42  1  0  0  0  0
  5 43  1  0  0  0  0
  6 16  1  0  0  0  0
  6 17  2  0  0  0  0
  7 17  1  0  0  0  0
  7 18  1  0  0  0  0
  7 44  1  0  0  0  0
  8 22  1  0  0  0  0
  8 26  1  0  0  0  0
  8 51  1  0  0  0  0
  9 27  1  0  0  0  0
  9 28  2  0  0  0  0
 10 33  2  0  0  0  0
 10 34  1  0  0  0  0
 11 12  1  0  0  0  0
 11 13  1  0  0  0  0
 11 35  1  0  0  0  0
 12 14  1  0  0  0  0
 12 36  1  0  0  0  0
 12 37  1  0  0  0  0
 13 15  1  0  0  0  0
 13 38  1  0  0  0  0
 13 39  1  0  0  0  0
 14 16  1  0  0  0  0
 14 40  1  0  0  0  0
 14 41  1  0  0  0  0
 15 16  2  0  0  0  0
 18 19  1  0  0  0  0
 19 21  1  0  0  0  0
 19 23  2  0  0  0  0
 20 21  2  0  0  0  0
 20 22  1  0  0  0  0
 20 24  1  0  0  0  0
 21 45  1  0  0  0  0
 22 46  1  0  0  0  0
 22 47  1  0  0  0  0
 23 25  1  0  0  0  0
 23 48  1  0  0  0  0
 24 25  2  0  0  0  0
 24 49  1  0  0  0  0
 25 50  1  0  0  0  0
 26 27  1  0  0  0  0
 27 29  2  0  0  0  0
 28 30  1  0  0  0  0
 29 52  1  0  0  0  0
 30 31  2  0  0  0  0
 30 32  1  0  0  0  0
 31 33  1  0  0  0  0
 31 53  1  0  0  0  0
 32 34  2  0  0  0  0
 32 54  1  0  0  0  0
 33 55  1  0  0  0  0
 34 56  1  0  0  0  0
M  END
> <PUBCHEM_COMPOUND_CID>
84973041

> <PUBCHEM_CONFORMER_RMSD>
1.2

> <PUBCHEM_CONFORMER_DIVERSEORDER>
1
133
57
70
61
33
81
128
182
56
174
48
87
24
39
62
161
164
188
139
99
69
102
150
37
21
31
202
199
141
32
88
73
29
86
200
134
109
80
27
163
108
181
5
28
16
145
177
189
75
59
114
137
66
43
10
194
65
130
113
55
15
178
96
52
89
116
45
92
95
82
135
104
40
38
175
50
13
107
23
64
146
125
173
195
170
79
106
74
103
22
126
119
63
30
58
46
36
138
115
204
180
91
121
47
171
9
183
166
136
110
90
169
160
168
190
8
153
100
98
167
44
84
120
117
148
97
71
54
7
162
140
196
144
53
152
112
172
129
76
127
184
25
42
142
20
17
193
118
111
185
14
147
93
4
18
154
83
205
19
158
51
149
155
41
198
105
101
191
165
176
132
122
123
72
203
159
3
35
131
34
94
49
201
11
197
151
192
156
186
78
67
77
179
187
157
26
68
60
124
12
143
85
6
2

> <PUBCHEM_MMFF94_PARTIAL_CHARGES>
46
1 -0.08
10 -0.62
11 0.27
13 0.18
14 0.18
15 -0.14
16 0.05
17 0.44
18 0.54
19 0.09
2 -0.08
20 -0.14
21 -0.15
22 0.44
23 -0.15
24 -0.15
25 -0.15
26 0.72
27 0.14
28 0.33
29 -0.11
3 -0.57
30 0.05
31 -0.15
32 -0.15
33 0.16
34 0.16
4 -0.57
42 0.36
43 0.36
44 0.37
45 0.15
48 0.15
49 0.15
5 -0.99
50 0.15
51 0.37
52 0.15
53 0.15
54 0.15
55 0.15
56 0.15
6 -0.57
7 -0.49
8 -0.73
9 -0.57

> <PUBCHEM_EFFECTIVE_ROTOR_COUNT>
8.8

> <PUBCHEM_PHARMACOPHORE_FEATURES>
13
1 10 acceptor
1 3 acceptor
1 4 acceptor
1 5 cation
1 5 donor
1 7 donor
1 8 donor
1 9 acceptor
5 1 6 15 16 17 rings
5 2 9 27 28 29 rings
6 10 30 31 32 33 34 rings
6 11 12 13 14 15 16 rings
6 19 20 21 23 24 25 rings

> <PUBCHEM_HEAVY_ATOM_COUNT>
34

> <PUBCHEM_ATOM_DEF_STEREO_COUNT>
1

> <PUBCHEM_ATOM_UDEF_STEREO_COUNT>
0

> <PUBCHEM_BOND_DEF_STEREO_COUNT>
0

> <PUBCHEM_BOND_UDEF_STEREO_COUNT>
0

> <PUBCHEM_ISOTOPIC_ATOM_COUNT>
0

> <PUBCHEM_COMPONENT_COUNT>
1

> <PUBCHEM_CACTVS_TAUTO_COUNT>
6

> <PUBCHEM_CONFORMER_ID>
051095F100000001

> <PUBCHEM_MMFF94_ENERGY>
65.5585

> <PUBCHEM_FEATURE_SELFOVERLAP>
66.042

> <PUBCHEM_SHAPE_FINGERPRINT>
10075450 59 18058187063240432751
11014199 57 18265896856750887318
11204353 107 17614855432093105384
11478447 30 17754726139892987978
117089 54 18410579452777278978
11801155 225 17550107399831594743
11963148 33 18117837699740975138
12655387 17 18266755584750576253
12841400 136 18262798467196756347
13553639 21 18261398887710566307
1361 2 18337954622555995194
13989917 61 18336267954434174779
15019793 15 18049440349488498154
15264996 154 18335715961290375374
15320467 1 18338797947853530662
15400415 2 17617941778692554541
15419008 145 18193262006889069002
15538507 19 17906730303113739930
15569901 51 18409728478259884795
15728490 83 18337956688693558401
17492 89 18338234843591964376
19301676 85 17977094670581708847
24204213 148 18334869312188974750
24893989 43 17411911960625509231
260245 28 18341329015321185823
373842 8 18339920399022330727
3886686 26 17907864993963653253
4017518 198 16894269093382368076
4408954 87 17986095530686584986
44344687 77 18114475539143189587
4435113 14 17533509069429709915
4756088 132 18048305648629761330
50080093 196 18267575978442433854
56633871 153 18121790434450692401
7970288 3 18410855447365033969
9961470 85 18052813641928878573

> <PUBCHEM_SHAPE_MULTIPOLES>
665.78
18.94
9.76
0.94
21.77
0.64
-0.08
26.17
3.06
-6.43
-0.09
-0.68
-0.56
-1.12

> <PUBCHEM_SHAPE_SELFOVERLAP>
1431.247

> <PUBCHEM_SHAPE_VOLUME>
369.2

> <PUBCHEM_COORDINATE_TYPE>
2
5
10

$$$$
84973042
  -OEChem-05102415103D

 56 60  0     1  0  0  0  0  0999 V2000
   -3.0303    1.1756    0.4043 S   0  0  0  0  0  0  0  0  0  0  0  0
    5.9589    1.0621   -1.2653 S   0  0  0  0  0  0  0  0  0  0  0  0
   -3.3933   -3.3980   -0.5343 O   0  0  0  0  0  0  0  0  0  0  0  0
    4.5040   -3.0370   -0.0039 O   0  0  0  0  0  0  0  0  0  0  0  0
   -7.2746    4.2951    0.2055 N   0  0  0  0  0  0  0  0  0  0  0  0
   -4.6918   -0.6926   -0.2779 N   0  0  0  0  0  0  0  0  0  0  0  0
   -2.3942   -1.3448    0.0515 N   0  0  0  0  0  0  0  0  0  0  0  0
    2.8375   -1.9048    1.1450 N   0  0  0  0  0  0  0  0  0  0  0  0
    3.9355    0.4963    0.2408 N   0  0  0  0  0  0  0  0  0  0  0  0
    3.6888    5.5974    0.2028 N   0  0  0  0  0  0  0  0  0  0  0  0
   -6.7399    2.9475    0.3906 C   0  0  1  0  0  0  0  0  0  0  0  0
   -7.3493    1.9861   -0.6553 C   0  0  0  0  0  0  0  0  0  0  0  0
   -5.1969    2.9864    0.2979 C   0  0  0  0  0  0  0  0  0  0  0  0
   -6.8627    0.5384   -0.4535 C   0  0  0  0  0  0  0  0  0  0  0  0
   -4.6608    1.6000    0.1660 C   0  0  0  0  0  0  0  0  0  0  0  0
   -5.3970    0.4897   -0.1964 C   0  0  0  0  0  0  0  0  0  0  0  0
   -3.4317   -0.4512    0.0162 C   0  0  0  0  0  0  0  0  0  0  0  0
   -2.4112   -2.7364   -0.2154 C   0  0  0  0  0  0  0  0  0  0  0  0
   -1.1047   -3.4388   -0.1199 C   0  0  0  0  0  0  0  0  0  0  0  0
    1.1216   -3.6004    0.8049 C   0  0  0  0  0  0  0  0  0  0  0  0
   -0.1047   -2.9415    0.7158 C   0  0  0  0  0  0  0  0  0  0  0  0
    2.1913   -3.0683    1.6974 C   0  0  0  0  0  0  0  0  0  0  0  0
   -0.8784   -4.5951   -0.8667 C   0  0  0  0  0  0  0  0  0  0  0  0
    1.3480   -4.7566    0.0581 C   0  0  0  0  0  0  0  0  0  0  0  0
    0.3480   -5.2539   -0.7779 C   0  0  0  0  0  0  0  0  0  0  0  0
    3.9567   -1.9888    0.3282 C   0  0  0  0  0  0  0  0  0  0  0  0
    4.5203   -0.6961   -0.1388 C   0  0  0  0  0  0  0  0  0  0  0  0
    4.6101    1.4895   -0.2943 C   0  0  0  0  0  0  0  0  0  0  0  0
    5.6274   -0.5917   -0.9545 C   0  0  0  0  0  0  0  0  0  0  0  0
    4.2966    2.8886   -0.1243 C   0  0  0  0  0  0  0  0  0  0  0  0
    5.2665    3.8555   -0.3644 C   0  0  0  0  0  0  0  0  0  0  0  0
    3.0230    3.2745    0.2792 C   0  0  0  0  0  0  0  0  0  0  0  0
    4.9154    5.1842   -0.1880 C   0  0  0  0  0  0  0  0  0  0  0  0
    2.7722    4.6292    0.4267 C   0  0  0  0  0  0  0  0  0  0  0  0
   -7.0273    2.5966    1.3907 H   0  0  0  0  0  0  0  0  0  0  0  0
   -8.4450    2.0030   -0.6046 H   0  0  0  0  0  0  0  0  0  0  0  0
   -7.0725    2.3213   -1.6644 H   0  0  0  0  0  0  0  0  0  0  0  0
   -4.7832    3.4833    1.1838 H   0  0  0  0  0  0  0  0  0  0  0  0
   -4.8833    3.5644   -0.5816 H   0  0  0  0  0  0  0  0  0  0  0  0
   -7.1151   -0.0616   -1.3346 H   0  0  0  0  0  0  0  0  0  0  0  0
   -7.3827    0.0969    0.4051 H   0  0  0  0  0  0  0  0  0  0  0  0
   -6.9090    4.9116    0.9300 H   0  0  0  0  0  0  0  0  0  0  0  0
   -8.2869    4.2818    0.3218 H   0  0  0  0  0  0  0  0  0  0  0  0
   -1.5046   -0.9054    0.2677 H   0  0  0  0  0  0  0  0  0  0  0  0
   -0.2620   -2.0631    1.3354 H   0  0  0  0  0  0  0  0  0  0  0  0
    1.7641   -2.7796    2.6648 H   0  0  0  0  0  0  0  0  0  0  0  0
    2.9472   -3.8349    1.9055 H   0  0  0  0  0  0  0  0  0  0  0  0
   -1.6418   -4.9963   -1.5281 H   0  0  0  0  0  0  0  0  0  0  0  0
    2.2990   -5.2794    0.1158 H   0  0  0  0  0  0  0  0  0  0  0  0
    0.5250   -6.1531   -1.3607 H   0  0  0  0  0  0  0  0  0  0  0  0
    2.4485   -0.9914    1.3618 H   0  0  0  0  0  0  0  0  0  0  0  0
    6.2432   -1.3751   -1.3736 H   0  0  0  0  0  0  0  0  0  0  0  0
    6.2883    3.6432   -0.6566 H   0  0  0  0  0  0  0  0  0  0  0  0
    2.2338    2.5557    0.4749 H   0  0  0  0  0  0  0  0  0  0  0  0
    5.6368    5.9771   -0.3562 H   0  0  0  0  0  0  0  0  0  0  0  0
    1.7947    4.9824    0.7385 H   0  0  0  0  0  0  0  0  0  0  0  0
  1 15  1  0  0  0  0
  1 17  1  0  0  0  0
  2 28  1  0  0  0  0
  2 29  1  0  0  0  0
  3 18  2  0  0  0  0
  4 26  2  0  0  0  0
  5 11  1  0  0  0  0
  5 42  1  0  0  0  0
  5 43  1  0  0  0  0
  6 16  1  0  0  0  0
  6 17  2  0  0  0  0
  7 17  1  0  0  0  0
  7 18  1  0  0  0  0
  7 44  1  0  0  0  0
  8 22  1  0  0  0  0
  8 26  1  0  0  0  0
  8 51  1  0  0  0  0
  9 27  1  0  0  0  0
  9 28  2  0  0  0  0
 10 33  2  0  0  0  0
 10 34  1  0  0  0  0
 11 12  1  0  0  0  0
 11 13  1  0  0  0  0
 11 35  1  0  0  0  0
 12 14  1  0  0  0  0
 12 36  1  0  0  0  0
 12 37  1  0  0  0  0
 13 15  1  0  0  0  0
 13 38  1  0  0  0  0
 13 39  1  0  0  0  0
 14 16  1  0  0  0  0
 14 40  1  0  0  0  0
 14 41  1  0  0  0  0
 15 16  2  0  0  0  0
 18 19  1  0  0  0  0
 19 21  1  0  0  0  0
 19 23  2  0  0  0  0
 20 21  2  0  0  0  0
 20 22  1  0  0  0  0
 20 24  1  0  0  0  0
 21 45  1  0  0  0  0
 22 46  1  0  0  0  0
 22 47  1  0  0  0  0
 23 25  1  0  0  0  0
 23 48  1  0  0  0  0
 24 25  2  0  0  0  0
 24 49  1  0  0  0  0
 25 50  1  0  0  0  0
 26 27  1  0  0  0  0
 27 29  2  0  0  0  0
 28 30  1  0  0  0  0
 29 52  1  0  0  0  0
 30 31  2  0  0  0  0
 30 32  1  0  0  0  0
 31 33  1  0  0  0  0
 31 53  1  0  0  0  0
 32 34  2  0  0  0  0
 32 54  1  0  0  0  0
 33 55  1  0  0  0  0
 34 56  1  0  0  0  0
M  END
> <PUBCHEM_COMPOUND_CID>
84973042

> <PUBCHEM_CONFORMER_RMSD>
1.2

> <PUBCHEM_CONFORMER_DIVERSEORDER>
1
90
27
106
176
116
88
137
34
62
181
149
111
32
44
87
58
38
93
22
127
173
159
174
70
24
16
199
155
78
64
112
126
45
33
157
117
121
189
142
120
65
163
165
50
151
186
19
113
150
130
83
23
107
133
110
179
26
167
162
109
168
185
66
146
60
143
51
37
94
49
158
187
75
20
63
71
171
195
14
9
122
59
194
8
135
76
5
10
97
54
196
43
169
98
13
144
134
41
74
57
18
188
56
183
7
48
55
145
118
154
182
72
12
170
36
39
115
6
200
138
17
156
11
61
52
148
25
104
178
86
139
80
190
191
141
92
67
124
105
198
81
28
193
160
30
68
102
131
73
175
96
69
128
114
172
31
4
77
147
184
47
79
180
129
40
164
29
140
53
132
161
95
84
99
166
201
103
197
119
153
101
123
35
46
89
136
100
85
21
192
3
177
82
42
108
15
125
2
152
91

> <PUBCHEM_MMFF94_PARTIAL_CHARGES>
46
1 -0.08
10 -0.62
11 0.27
13 0.18
14 0.18
15 -0.14
16 0.05
17 0.44
18 0.54
19 0.09
2 -0.08
20 -0.14
21 -0.15
22 0.44
23 -0.15
24 -0.15
25 -0.15
26 0.72
27 0.14
28 0.33
29 -0.11
3 -0.57
30 0.05
31 -0.15
32 -0.15
33 0.16
34 0.16
4 -0.57
42 0.36
43 0.36
44 0.37
45 0.15
48 0.15
49 0.15
5 -0.99
50 0.15
51 0.37
52 0.15
53 0.15
54 0.15
55 0.15
56 0.15
6 -0.57
7 -0.49
8 -0.73
9 -0.57

> <PUBCHEM_EFFECTIVE_ROTOR_COUNT>
8.8

> <PUBCHEM_PHARMACOPHORE_FEATURES>
13
1 10 acceptor
1 3 acceptor
1 4 acceptor
1 5 cation
1 5 donor
1 7 donor
1 8 donor
1 9 acceptor
5 1 6 15 16 17 rings
5 2 9 27 28 29 rings
6 10 30 31 32 33 34 rings
6 11 12 13 14 15 16 rings
6 19 20 21 23 24 25 rings

> <PUBCHEM_HEAVY_ATOM_COUNT>
34

> <PUBCHEM_ATOM_DEF_STEREO_COUNT>
1

> <PUBCHEM_ATOM_UDEF_STEREO_COUNT>
0

> <PUBCHEM_BOND_DEF_STEREO_COUNT>
0

> <PUBCHEM_BOND_UDEF_STEREO_COUNT>
0

> <PUBCHEM_ISOTOPIC_ATOM_COUNT>
0

> <PUBCHEM_COMPONENT_COUNT>
1

> <PUBCHEM_CACTVS_TAUTO_COUNT>
6

> <PUBCHEM_CONFORMER_ID>
051095F200000001

> <PUBCHEM_MMFF94_ENERGY>
65.5624

> <PUBCHEM_FEATURE_SELFOVERLAP>
66.042

> <PUBCHEM_SHAPE_FINGERPRINT>
10439779 11 18266728264389350802
10462674 296 17620760479554390090
10556698 54 18269290096037639582
10673678 19 18411984620411606739
10864689 126 18410302419487563388
10917259 69 18337111276739132652
11273773 38 18339079281021876626
11374522 174 18187943797087050837
11479125 193 18337398256829592057
11505856 67 18198334259822432895
11621639 336 17835804102134211506
11761917 142 17692241255406627160
11828042 163 18411709786203506684
11828042 53 17831310767638708428
12925494 130 18335422370194506707
13944108 23 18193840340522988288
14068700 686 17190658399757652144
14117953 113 18268429023814663630
14187579 7 18051413173843243798
14429114 114 18194117640780788442
14747282 540 18189341161060733100
14790565 3 18410856594221743147
15001296 14 18335134302131695345
15198563 99 17910392015746813047
15320291 9 17687457288276262996
15320295 198 17900259702853719077
15320467 1 18339080367749329240
15400415 2 18338516455713190797
155225 5 17545601614291891672
15773879 134 18411975854689317893
15979999 66 17622450441532785118
16067689 134 18196946474068230373
19053607 189 18195799898568607560
19302320 297 18337388219169468875
21223535 225 18341894156086905078
23729417 116 16613078864983845047
241686 156 18335425689840859933
24204213 92 17844261627707660262
245318 6 18115040657268922903
353859 123 15316304577380634513
44280116 191 18338242548742811504
4487111 67 17907015436848133480
4756261 7 17619104993217172587
4760202 170 17904750091314745773
508180 173 18339654408130950026
5109719 28 18339373972314583619
53794403 172 18410572851617961515
5951187 136 18343027666232847134
6036956 94 17613720744224441021
6176135 31 18337098034321003936

> <PUBCHEM_SHAPE_MULTIPOLES>
665.78
18.94
9.75
0.95
21.74
0.58
-0.07
26.25
3.24
-6.5
-0.21
-0.58
-0.53
-1.32

> <PUBCHEM_SHAPE_SELFOVERLAP>
1431.222

> <PUBCHEM_SHAPE_VOLUME>
369.2

> <PUBCHEM_COORDINATE_TYPE>
2
5
10

$$$$
84973043
  -OEChem-05102415103D

 59 63  0     1  0  0  0  0  0999 V2000
   -3.5830   -1.5336   -0.6461 S   0  0  0  0  0  0  0  0  0  0  0  0
   -4.3025    2.7864    1.0124 O   0  0  0  0  0  0  0  0  0  0  0  0
    3.4932    3.4205   -0.2514 O   0  0  0  0  0  0  0  0  0  0  0  0
   -7.4232   -5.1408   -0.4758 N   0  0  0  0  0  0  0  0  0  0  0  0
   -5.3440    0.0161    0.4554 N   0  0  0  0  0  0  0  0  0  0  0  0
   -3.1691    0.9666    0.0321 N   0  0  0  0  0  0  0  0  0  0  0  0
    1.8414    2.2770   -1.4105 N   0  0  0  0  0  0  0  0  0  0  0  0
    5.8301   -2.4710    0.1281 N   0  0  0  0  0  0  0  0  0  0  0  0
    5.4048   -3.6290   -0.3956 N   0  0  0  0  0  0  0  0  0  0  0  0
    7.2767   -3.9531    0.7711 N   0  0  0  0  0  0  0  0  0  0  0  0
    6.2935   -4.5319    0.0008 N   0  0  0  0  0  0  0  0  0  0  0  0
   -6.8503   -3.9193    0.0865 C   0  0  2  0  0  0  0  0  0  0  0  0
   -7.8803   -2.7687    0.0174 C   0  0  0  0  0  0  0  0  0  0  0  0
   -5.5478   -3.5643   -0.6676 C   0  0  0  0  0  0  0  0  0  0  0  0
   -7.3399   -1.4781    0.6625 C   0  0  0  0  0  0  0  0  0  0  0  0
   -5.1278   -2.1730   -0.3291 C   0  0  0  0  0  0  0  0  0  0  0  0
   -5.9342   -1.2132    0.2495 C   0  0  0  0  0  0  0  0  0  0  0  0
   -4.1031   -0.0353    0.0190 C   0  0  0  0  0  0  0  0  0  0  0  0
   -3.2973    2.2941    0.5111 C   0  0  0  0  0  0  0  0  0  0  0  0
   -2.0841    3.1472    0.4120 C   0  0  0  0  0  0  0  0  0  0  0  0
    0.0057    3.6963   -0.6686 C   0  0  0  0  0  0  0  0  0  0  0  0
   -1.1308    2.8932   -0.5739 C   0  0  0  0  0  0  0  0  0  0  0  0
    1.0268    3.4241   -1.7213 C   0  0  0  0  0  0  0  0  0  0  0  0
   -1.9011    4.2045    1.3035 C   0  0  0  0  0  0  0  0  0  0  0  0
    0.1890    4.7534    0.2229 C   0  0  0  0  0  0  0  0  0  0  0  0
   -0.7646    5.0075    1.2088 C   0  0  0  0  0  0  0  0  0  0  0  0
    3.7618    1.1019   -0.4762 C   0  0  0  0  0  0  0  0  0  0  0  0
    3.0243    2.3736   -0.6904 C   0  0  0  0  0  0  0  0  0  0  0  0
    5.1452   -1.2867   -0.0725 C   0  0  0  0  0  0  0  0  0  0  0  0
    5.1448    1.1188   -0.2954 C   0  0  0  0  0  0  0  0  0  0  0  0
    3.0704   -0.1094   -0.4548 C   0  0  0  0  0  0  0  0  0  0  0  0
    5.8365   -0.0754   -0.0936 C   0  0  0  0  0  0  0  0  0  0  0  0
    3.7621   -1.3037   -0.2532 C   0  0  0  0  0  0  0  0  0  0  0  0
    6.9704   -2.6779    0.8370 C   0  0  0  0  0  0  0  0  0  0  0  0
    7.7067   -1.6166    1.5458 C   0  0  0  0  0  0  0  0  0  0  0  0
   -6.6106   -4.1049    1.1420 H   0  0  0  0  0  0  0  0  0  0  0  0
   -8.8130   -3.0534    0.5197 H   0  0  0  0  0  0  0  0  0  0  0  0
   -8.1333   -2.5675   -1.0327 H   0  0  0  0  0  0  0  0  0  0  0  0
   -5.7083   -3.6237   -1.7523 H   0  0  0  0  0  0  0  0  0  0  0  0
   -4.7610   -4.2840   -0.4109 H   0  0  0  0  0  0  0  0  0  0  0  0
   -7.3705   -1.5773    1.7541 H   0  0  0  0  0  0  0  0  0  0  0  0
   -7.9824   -0.6334    0.3911 H   0  0  0  0  0  0  0  0  0  0  0  0
   -8.2507   -5.4081    0.0555 H   0  0  0  0  0  0  0  0  0  0  0  0
   -6.7584   -5.9073   -0.3795 H   0  0  0  0  0  0  0  0  0  0  0  0
   -2.2670    0.6671   -0.3253 H   0  0  0  0  0  0  0  0  0  0  0  0
   -1.2608    2.0994   -1.3041 H   0  0  0  0  0  0  0  0  0  0  0  0
    0.5335    3.2291   -2.6808 H   0  0  0  0  0  0  0  0  0  0  0  0
    1.6753    4.2949   -1.8749 H   0  0  0  0  0  0  0  0  0  0  0  0
   -2.6291    4.4168    2.0820 H   0  0  0  0  0  0  0  0  0  0  0  0
    1.0705    5.3861    0.1626 H   0  0  0  0  0  0  0  0  0  0  0  0
   -0.6210    5.8297    1.9038 H   0  0  0  0  0  0  0  0  0  0  0  0
    1.5370    1.3875   -1.7909 H   0  0  0  0  0  0  0  0  0  0  0  0
    5.7033    2.0506   -0.3342 H   0  0  0  0  0  0  0  0  0  0  0  0
    1.9907   -0.1646   -0.5564 H   0  0  0  0  0  0  0  0  0  0  0  0
    6.9144    0.0046   -0.0607 H   0  0  0  0  0  0  0  0  0  0  0  0
    3.1942   -2.2306   -0.2251 H   0  0  0  0  0  0  0  0  0  0  0  0
    8.3969   -1.0890    0.8819 H   0  0  0  0  0  0  0  0  0  0  0  0
    7.0571   -0.9169    2.0786 H   0  0  0  0  0  0  0  0  0  0  0  0
    8.3329   -2.0805    2.3181 H   0  0  0  0  0  0  0  0  0  0  0  0
  1 16  1  0  0  0  0
  1 18  1  0  0  0  0
  2 19  2  0  0  0  0
  3 28  2  0  0  0  0
  4 12  1  0  0  0  0
  4 43  1  0  0  0  0
  4 44  1  0  0  0  0
  5 17  1  0  0  0  0
  5 18  2  0  0  0  0
  6 18  1  0  0  0  0
  6 19  1  0  0  0  0
  6 45  1  0  0  0  0
  7 23  1  0  0  0  0
  7 28  1  0  0  0  0
  7 52  1  0  0  0  0
  8  9  1  0  0  0  0
  8 29  1  0  0  0  0
  8 34  1  0  0  0  0
  9 11  2  0  0  0  0
 10 11  1  0  0  0  0
 10 34  2  0  0  0  0
 12 13  1  0  0  0  0
 12 14  1  0  0  0  0
 12 36  1  0  0  0  0
 13 15  1  0  0  0  0
 13 37  1  0  0  0  0
 13 38  1  0  0  0  0
 14 16  1  0  0  0  0
 14 39  1  0  0  0  0
 14 40  1  0  0  0  0
 15 17  1  0  0  0  0
 15 41  1  0  0  0  0
 15 42  1  0  0  0  0
 16 17  2  0  0  0  0
 19 20  1  0  0  0  0
 20 22  1  0  0  0  0
 20 24  2  0  0  0  0
 21 22  2  0  0  0  0
 21 23  1  0  0  0  0
 21 25  1  0  0  0  0
 22 46  1  0  0  0  0
 23 47  1  0  0  0  0
 23 48  1  0  0  0  0
 24 26  1  0  0  0  0
 24 49  1  0  0  0  0
 25 26  2  0  0  0  0
 25 50  1  0  0  0  0
 26 51  1  0  0  0  0
 27 28  1  0  0  0  0
 27 30  2  0  0  0  0
 27 31  1  0  0  0  0
 29 32  2  0  0  0  0
 29 33  1  0  0  0  0
 30 32  1  0  0  0  0
 30 53  1  0  0  0  0
 31 33  2  0  0  0  0
 31 54  1  0  0  0  0
 32 55  1  0  0  0  0
 33 56  1  0  0  0  0
 34 35  1  0  0  0  0
 35 57  1  0  0  0  0
 35 58  1  0  0  0  0
 35 59  1  0  0  0  0
M  END
> <PUBCHEM_COMPOUND_CID>
84973043

> <PUBCHEM_CONFORMER_RMSD>
1

> <PUBCHEM_CONFORMER_DIVERSEORDER>
1
232
17
57
16
95
163
160
156
134
132
168
158
64
211
106
254
295
224
111
185
195
169
128
285
272
74
122
28
265
130
214
45
92
231
144
91
206
66
34
77
256
220
318
150
129
296
103
175
268
107
187
199
24
189
63
123
301
118
87
49
217
7
235
273
33
51
138
311
271
245
177
229
18
250
174
261
180
164
161
98
53
260
304
133
99
80
263
121
125
212
204
108
155
303
12
94
240
97
146
312
143
102
191
139
274
323
196
89
96
322
234
178
219
83
173
251
145
291
126
297
21
267
167
162
159
149
179
258
209
216
54
284
242
321
136
205
310
81
293
317
27
120
227
277
253
23
6
188
60
166
282
142
30
186
59
124
110
165
259
15
215
153
157
113
11
184
101
116
320
135
171
115
117
290
264
151
248
46
82
275
32
252
288
75
68
236
39
71
281
119
85
308
262
90
43
238
38
222
315
69
298
42
287
313
194
13
127
41
181
19
154
84
306
223
147
73
3
316
47
239
36
314
35
112
203
170
221
208
29
307
190
152
131
100
20
279
243
286
70
233
300
93
270
283
114
48
207
266
182
198
237
201
67
278
56
247
280
294
50
309
58
78
104
305
241
79
289
197
52
176
148
213
31
276
200
302
218
140
65
105
192
40
26
202
244
269
257
88
8
37
299
109
76
10
228
226
2
44
255
246
14
183
230
5
86
249
72
193
172
22
4
292
62
319
55
137
141
225
25
210
61
9

> <PUBCHEM_MMFF94_PARTIAL_CHARGES>
45
1 -0.08
10 -0.34
12 0.27
14 0.18
15 0.18
16 -0.14
17 0.05
18 0.44
19 0.54
2 -0.57
20 0.09
21 -0.14
22 -0.15
23 0.44
24 -0.15
25 -0.15
26 -0.15
27 0.09
28 0.54
29 -0.02
3 -0.57
30 -0.15
31 -0.15
32 -0.15
33 -0.15
34 0.01
35 0.18
4 -0.99
43 0.36
44 0.36
45 0.37
46 0.15
49 0.15
5 -0.57
50 0.15
51 0.15
52 0.37
53 0.15
54 0.15
55 0.15
56 0.15
6 -0.49
7 -0.73
8 0.59
9 -0.42

> <PUBCHEM_EFFECTIVE_ROTOR_COUNT>
8.8

> <PUBCHEM_PHARMACOPHORE_FEATURES>
12
1 2 acceptor
1 3 acceptor
1 4 cation
1 4 donor
1 6 donor
1 7 donor
3 8 10 34 cation
5 1 5 16 17 18 rings
5 8 9 10 11 34 rings
6 12 13 14 15 16 17 rings
6 20 21 22 24 25 26 rings
6 27 29 30 31 32 33 rings

> <PUBCHEM_HEAVY_ATOM_COUNT>
35

> <PUBCHEM_ATOM_DEF_STEREO_COUNT>
1

> <PUBCHEM_ATOM_UDEF_STEREO_COUNT>
0

> <PUBCHEM_BOND_DEF_STEREO_COUNT>
0

> <PUBCHEM_BOND_UDEF_STEREO_COUNT>
0

> <PUBCHEM_ISOTOPIC_ATOM_COUNT>
0

> <PUBCHEM_COMPONENT_COUNT>
1

> <PUBCHEM_CACTVS_TAUTO_COUNT>
6

> <PUBCHEM_CONFORMER_ID>
051095F300000001

> <PUBCHEM_MMFF94_ENERGY>
82.2681

> <PUBCHEM_FEATURE_SELFOVERLAP>
60.966

> <PUBCHEM_SHAPE_FINGERPRINT>
10258705 36 17681846434266390099
10556698 54 12180420135072125207
10622 236 18408325488226236805
11399510 152 17917134045133394448
11409948 35 18264487460030163631
11478447 58 17977664534711037235
11607047 403 18195799885952789504
117089 54 18409453587140614426
11761917 116 18337399262574846302
11801155 225 17398390828206063978
12841400 136 18335417976174560931
131258 38 18048587406993964740
13553639 21 18265064702733283379
1361 4 18339645547444437242
13947947 140 18336272314236793935
14040222 275 18263664942625947790
14068700 675 18408888417010646552
14344974 204 18266740178423901470
15019793 15 17976256829842775002
15264996 151 18265337399112136989
15419008 145 18266449920249639738
15538507 19 18195807367705866090
15569901 51 18409449223665370979
15728490 83 18410294705425281327
15803439 3 16739993399979894669
16628084 112 18336267955219456799
16728300 4 18341613737603564685
16993427 108 18343016722856538837
17324776 126 18335417954515381418
17492 89 18409731759334940748
19303781 99 17822583719918438608
19319366 153 17834682973341015132
19841028 212 18334856151507112057
208703 8 18335696130919486122
21360442 33 18121498218677964007
21362267 20 17831574277099399130
22956985 138 18340199791215456536
23523787 8 16958126632637302845
23523788 1 18124566894869257752
23569914 152 18125127569449185453
23569943 247 18337112388977433323
24204213 148 18262809570625616476
24893989 43 17769951382497532510
32027 91 18341324604890594813
4017518 198 17398954877433300949
4756088 132 18053373581706766423
4760202 70 18186812400919229460
50009960 94 18410001144057282430
50080093 196 17535463717040156939
5874358 3 16878768411151551122
6057620 51 18334020519160999196
6058803 2 18192458349118974156
6201460 15 18409454665319622638
6441014 3 18411418367142888498
6677587 24 16451770089328706565
6697151 62 17774436231152781813
7970288 3 18411701032126116581
9555976 147 17917444098753543673
96874 4 18337954592738961951

> <PUBCHEM_SHAPE_MULTIPOLES>
672.55
23.99
8.63
1.09
2.94
1.68
-0.02
-44.02
-4.32
1.13
-0.89
-0.55
0.7
-3.63

> <PUBCHEM_SHAPE_SELFOVERLAP>
1455.482

> <PUBCHEM_SHAPE_VOLUME>
370.2

> <PUBCHEM_COORDINATE_TYPE>
2
5
10

$$$$
84973044
  -OEChem-05102415103D

 59 63  0     1  0  0  0  0  0999 V2000
   -3.5835   -1.5350   -0.6355 S   0  0  0  0  0  0  0  0  0  0  0  0
   -4.2991    2.7907    1.0096 O   0  0  0  0  0  0  0  0  0  0  0  0
    3.4956    3.4168   -0.2637 O   0  0  0  0  0  0  0  0  0  0  0  0
   -7.4537   -5.1122   -0.5352 N   0  0  0  0  0  0  0  0  0  0  0  0
   -5.3423    0.0186    0.4643 N   0  0  0  0  0  0  0  0  0  0  0  0
   -3.1674    0.9667    0.0353 N   0  0  0  0  0  0  0  0  0  0  0  0
    1.8423    2.2695   -1.4168 N   0  0  0  0  0  0  0  0  0  0  0  0
    5.8305   -2.4741    0.1368 N   0  0  0  0  0  0  0  0  0  0  0  0
    5.4042   -3.6340   -0.3820 N   0  0  0  0  0  0  0  0  0  0  0  0
    7.2771   -3.9542    0.7843 N   0  0  0  0  0  0  0  0  0  0  0  0
    6.2930   -4.5356    0.0171 N   0  0  0  0  0  0  0  0  0  0  0  0
   -7.0775   -3.7002   -0.5615 C   0  0  1  0  0  0  0  0  0  0  0  0
   -7.6673   -2.9703    0.6668 C   0  0  0  0  0  0  0  0  0  0  0  0
   -5.5369   -3.5767   -0.6124 C   0  0  0  0  0  0  0  0  0  0  0  0
   -7.3504   -1.4628    0.6432 C   0  0  0  0  0  0  0  0  0  0  0  0
   -5.1303   -2.1708   -0.3209 C   0  0  0  0  0  0  0  0  0  0  0  0
   -5.9314   -1.2129    0.2681 C   0  0  0  0  0  0  0  0  0  0  0  0
   -4.1018   -0.0349    0.0271 C   0  0  0  0  0  0  0  0  0  0  0  0
   -3.2947    2.2960    0.5094 C   0  0  0  0  0  0  0  0  0  0  0  0
   -2.0812    3.1484    0.4058 C   0  0  0  0  0  0  0  0  0  0  0  0
    0.0079    3.6924   -0.6788 C   0  0  0  0  0  0  0  0  0  0  0  0
   -1.1288    2.8901   -0.5800 C   0  0  0  0  0  0  0  0  0  0  0  0
    1.0279    3.4156   -1.7314 C   0  0  0  0  0  0  0  0  0  0  0  0
   -1.8970    4.2090    1.2929 C   0  0  0  0  0  0  0  0  0  0  0  0
    0.1923    4.7528    0.2084 C   0  0  0  0  0  0  0  0  0  0  0  0
   -0.7602    5.0113    1.1942 C   0  0  0  0  0  0  0  0  0  0  0  0
    3.7631    1.0972   -0.4796 C   0  0  0  0  0  0  0  0  0  0  0  0
    3.0259    2.3684   -0.6981 C   0  0  0  0  0  0  0  0  0  0  0  0
    5.1459   -1.2903   -0.0678 C   0  0  0  0  0  0  0  0  0  0  0  0
    5.1463    1.1144   -0.3001 C   0  0  0  0  0  0  0  0  0  0  0  0
    3.0713   -0.1136   -0.4530 C   0  0  0  0  0  0  0  0  0  0  0  0
    5.8377   -0.0794   -0.0943 C   0  0  0  0  0  0  0  0  0  0  0  0
    3.7626   -1.3075   -0.2472 C   0  0  0  0  0  0  0  0  0  0  0  0
    6.9714   -2.6786    0.8454 C   0  0  0  0  0  0  0  0  0  0  0  0
    7.7087   -1.6148    1.5494 C   0  0  0  0  0  0  0  0  0  0  0  0
   -7.5006   -3.2473   -1.4681 H   0  0  0  0  0  0  0  0  0  0  0  0
   -7.2554   -3.4103    1.5856 H   0  0  0  0  0  0  0  0  0  0  0  0
   -8.7553   -3.1040    0.7111 H   0  0  0  0  0  0  0  0  0  0  0  0
   -5.1703   -3.8942   -1.5960 H   0  0  0  0  0  0  0  0  0  0  0  0
   -5.0779   -4.2331    0.1388 H   0  0  0  0  0  0  0  0  0  0  0  0
   -7.5682   -1.0249    1.6235 H   0  0  0  0  0  0  0  0  0  0  0  0
   -7.9980   -0.9670   -0.0898 H   0  0  0  0  0  0  0  0  0  0  0  0
   -7.1060   -5.5755   -1.3737 H   0  0  0  0  0  0  0  0  0  0  0  0
   -8.4690   -5.1976   -0.5584 H   0  0  0  0  0  0  0  0  0  0  0  0
   -2.2659    0.6656   -0.3222 H   0  0  0  0  0  0  0  0  0  0  0  0
   -1.2599    2.0936   -1.3070 H   0  0  0  0  0  0  0  0  0  0  0  0
    0.5337    3.2170   -2.6897 H   0  0  0  0  0  0  0  0  0  0  0  0
    1.6765    4.2856   -1.8890 H   0  0  0  0  0  0  0  0  0  0  0  0
   -2.6242    4.4246    2.0713 H   0  0  0  0  0  0  0  0  0  0  0  0
    1.0740    5.3850    0.1449 H   0  0  0  0  0  0  0  0  0  0  0  0
   -0.6157    5.8361    1.8858 H   0  0  0  0  0  0  0  0  0  0  0  0
    1.5372    1.3787   -1.7935 H   0  0  0  0  0  0  0  0  0  0  0  0
    5.7051    2.0458   -0.3430 H   0  0  0  0  0  0  0  0  0  0  0  0
    1.9914   -0.1688   -0.5534 H   0  0  0  0  0  0  0  0  0  0  0  0
    6.9156    0.0003   -0.0626 H   0  0  0  0  0  0  0  0  0  0  0  0
    3.1944   -2.2340   -0.2151 H   0  0  0  0  0  0  0  0  0  0  0  0
    8.3986   -1.0900    0.8829 H   0  0  0  0  0  0  0  0  0  0  0  0
    7.0599   -0.9128    2.0800 H   0  0  0  0  0  0  0  0  0  0  0  0
    8.3354   -2.0759    2.3230 H   0  0  0  0  0  0  0  0  0  0  0  0
  1 16  1  0  0  0  0
  1 18  1  0  0  0  0
  2 19  2  0  0  0  0
  3 28  2  0  0  0  0
  4 12  1  0  0  0  0
  4 43  1  0  0  0  0
  4 44  1  0  0  0  0
  5 17  1  0  0  0  0
  5 18  2  0  0  0  0
  6 18  1  0  0  0  0
  6 19  1  0  0  0  0
  6 45  1  0  0  0  0
  7 23  1  0  0  0  0
  7 28  1  0  0  0  0
  7 52  1  0  0  0  0
  8  9  1  0  0  0  0
  8 29  1  0  0  0  0
  8 34  1  0  0  0  0
  9 11  2  0  0  0  0
 10 11  1  0  0  0  0
 10 34  2  0  0  0  0
 12 13  1  0  0  0  0
 12 14  1  0  0  0  0
 12 36  1  0  0  0  0
 13 15  1  0  0  0  0
 13 37  1  0  0  0  0
 13 38  1  0  0  0  0
 14 16  1  0  0  0  0
 14 39  1  0  0  0  0
 14 40  1  0  0  0  0
 15 17  1  0  0  0  0
 15 41  1  0  0  0  0
 15 42  1  0  0  0  0
 16 17  2  0  0  0  0
 19 20  1  0  0  0  0
 20 22  1  0  0  0  0
 20 24  2  0  0  0  0
 21 22  2  0  0  0  0
 21 23  1  0  0  0  0
 21 25  1  0  0  0  0
 22 46  1  0  0  0  0
 23 47  1  0  0  0  0
 23 48  1  0  0  0  0
 24 26  1  0  0  0  0
 24 49  1  0  0  0  0
 25 26  2  0  0  0  0
 25 50  1  0  0  0  0
 26 51  1  0  0  0  0
 27 28  1  0  0  0  0
 27 30  2  0  0  0  0
 27 31  1  0  0  0  0
 29 32  2  0  0  0  0
 29 33  1  0  0  0  0
 30 32  1  0  0  0  0
 30 53  1  0  0  0  0
 31 33  2  0  0  0  0
 31 54  1  0  0  0  0
 32 55  1  0  0  0  0
 33 56  1  0  0  0  0
 34 35  1  0  0  0  0
 35 57  1  0  0  0  0
 35 58  1  0  0  0  0
 35 59  1  0  0  0  0
M  END
> <PUBCHEM_COMPOUND_CID>
84973044

> <PUBCHEM_CONFORMER_RMSD>
1

> <PUBCHEM_CONFORMER_DIVERSEORDER>
1
232
108
45
158
191
93
185
312
132
4
92
317
314
181
105
280
217
233
63
114
306
310
281
2
71
256
202
110
184
186
221
102
166
144
16
160
142
173
65
13
289
38
165
296
313
47
275
219
241
75
96
106
174
113
76
176
261
60
252
51
190
188
172
162
143
25
311
5
278
80
146
135
20
245
262
100
61
164
287
196
167
90
242
267
18
246
197
98
30
94
276
139
239
157
244
153
179
320
95
140
193
58
123
121
295
228
254
154
52
215
104
9
50
7
192
86
138
293
183
122
125
222
178
260
67
137
87
101
288
103
21
273
285
152
64
236
10
175
319
127
145
271
117
195
99
171
14
235
129
141
309
131
56
91
150
206
116
168
147
251
283
66
55
270
250
305
308
85
255
263
240
294
82
279
128
69
28
134
124
258
133
297
298
170
302
119
89
234
243
229
257
6
62
43
226
205
41
227
72
199
115
290
214
300
220
207
180
118
266
48
109
19
182
49
23
265
130
11
218
316
299
307
15
286
42
272
189
97
177
120
230
126
31
169
57
301
198
201
238
253
204
107
249
303
37
136
35
156
237
88
264
225
36
151
209
212
34
46
68
315
268
161
304
81
216
274
17
111
291
208
22
318
44
159
223
155
83
40
200
213
32
73
53
210
74
77
224
54
163
231
292
194
78
259
248
284
84
70
112
211
27
79
39
277
59
203
187
29
33
149
269
3
247
12
24
26
148
8
282

> <PUBCHEM_MMFF94_PARTIAL_CHARGES>
45
1 -0.08
10 -0.34
12 0.27
14 0.18
15 0.18
16 -0.14
17 0.05
18 0.44
19 0.54
2 -0.57
20 0.09
21 -0.14
22 -0.15
23 0.44
24 -0.15
25 -0.15
26 -0.15
27 0.09
28 0.54
29 -0.02
3 -0.57
30 -0.15
31 -0.15
32 -0.15
33 -0.15
34 0.01
35 0.18
4 -0.99
43 0.36
44 0.36
45 0.37
46 0.15
49 0.15
5 -0.57
50 0.15
51 0.15
52 0.37
53 0.15
54 0.15
55 0.15
56 0.15
6 -0.49
7 -0.73
8 0.59
9 -0.42

> <PUBCHEM_EFFECTIVE_ROTOR_COUNT>
8.8

> <PUBCHEM_PHARMACOPHORE_FEATURES>
12
1 2 acceptor
1 3 acceptor
1 4 cation
1 4 donor
1 6 donor
1 7 donor
3 8 10 34 cation
5 1 5 16 17 18 rings
5 8 9 10 11 34 rings
6 12 13 14 15 16 17 rings
6 20 21 22 24 25 26 rings
6 27 29 30 31 32 33 rings

> <PUBCHEM_HEAVY_ATOM_COUNT>
35

> <PUBCHEM_ATOM_DEF_STEREO_COUNT>
1

> <PUBCHEM_ATOM_UDEF_STEREO_COUNT>
0

> <PUBCHEM_BOND_DEF_STEREO_COUNT>
0

> <PUBCHEM_BOND_UDEF_STEREO_COUNT>
0

> <PUBCHEM_ISOTOPIC_ATOM_COUNT>
0

> <PUBCHEM_COMPONENT_COUNT>
1

> <PUBCHEM_CACTVS_TAUTO_COUNT>
6

> <PUBCHEM_CONFORMER_ID>
051095F400000001

> <PUBCHEM_MMFF94_ENERGY>
82.2695

> <PUBCHEM_FEATURE_SELFOVERLAP>
60.966

> <PUBCHEM_SHAPE_FINGERPRINT>
10100884 174 18333729118225802450
10258705 36 17681846438561370403
10556698 54 12180420135082694223
10622 236 18408606967519007277
11399510 152 17917134045159781200
11409948 35 18264207084575669127
11478447 58 17977663439473290675
11607047 403 18196081360918944160
117089 54 18409172112169165586
11761917 116 18337399262580121054
11801155 225 17398390832516849026
12841400 136 18334856125711661931
13553639 21 18265347272947753475
1361 4 18339645547460242018
13947947 140 18408611383256713815
14040222 275 18263946417592108934
14068700 675 18409169892008488728
14344974 204 18266458703457727310
15419008 145 18266449920281255802
15538507 19 18195807363416186522
15569901 51 18409449223665370987
15728490 83 18410294705430562567
15803439 3 16812332469010383493
16628084 112 18336267955219404799
16728300 4 18413672431147832637
16993427 108 18342736355997071861
17324776 126 18335417954478451634
17492 89 18409731759350765004
19303781 99 17894641313945823528
19319366 153 17906459083965220164
19841028 212 18334294296775639033
208703 8 18335133180966019394
21360442 33 18121778598432804439
21362267 20 17831574277094124394
22956985 138 18340199791226012544
23523787 8 16958408107614019997
23523788 1 18124566894879774776
23569914 152 18124846090182840709
23569943 247 18337112393267171331
24204213 148 18262809570615060468
24893989 43 17626962115528834814
32027 91 18341324604895863077
4017518 198 17399235252908913853
4756088 132 17981316004796070607
4760202 70 18186812400919222972
50009960 94 18410001144062544198
50080093 196 17535463717055981187
5874358 3 16879049886117725266
6057620 51 18334020519166286932
6058803 2 18192458349108424652
6201320 221 18268134543893428247
6201460 15 18409735036510850230
6441014 3 18411699846409317658
6697151 62 17702378637114860333
7970288 3 18411419552843895621
9555976 147 17917444094453288657
96874 4 18338236067710417351

> <PUBCHEM_SHAPE_MULTIPOLES>
672.55
24
8.61
1.12
2.88
1.84
-0.02
-44.17
-4.53
1.04
-0.76
-0.41
0.62
-3.78

> <PUBCHEM_SHAPE_SELFOVERLAP>
1455.426

> <PUBCHEM_SHAPE_VOLUME>
370.2

> <PUBCHEM_COORDINATE_TYPE>
2
5
10

$$$$
84973045
  -OEChem-05102415103D

 60 64  0     1  0  0  0  0  0999 V2000
   -2.6443   -0.4477    0.3019 S   0  0  0  0  0  0  0  0  0  0  0  0
   -2.0759    4.1253   -0.5328 O   0  0  0  0  0  0  0  0  0  0  0  0
    5.2108    1.4963   -0.2884 O   0  0  0  0  0  0  0  0  0  0  0  0
   -7.4582   -2.5956    0.2768 N   0  0  0  0  0  0  0  0  0  0  0  0
   -3.9034    1.7475   -0.2576 N   0  0  0  0  0  0  0  0  0  0  0  0
   -1.5067    1.8916   -0.0390 N   0  0  0  0  0  0  0  0  0  0  0  0
    3.4560    1.2274    1.2042 N   0  0  0  0  0  0  0  0  0  0  0  0
    0.5108   -5.3308   -0.7686 N   0  0  0  0  0  0  0  0  0  0  0  0
   -6.6417   -1.3966    0.4561 C   0  0  2  0  0  0  0  0  0  0  0  0
   -7.0830   -0.2995   -0.5394 C   0  0  0  0  0  0  0  0  0  0  0  0
   -5.1481   -1.7572    0.2815 C   0  0  0  0  0  0  0  0  0  0  0  0
   -6.2918    1.0071   -0.3381 C   0  0  0  0  0  0  0  0  0  0  0  0
   -4.3375   -0.5119    0.1445 C   0  0  0  0  0  0  0  0  0  0  0  0
   -4.8383    0.7383   -0.1590 C   0  0  0  0  0  0  0  0  0  0  0  0
   -2.7102    1.2375   -0.0354 C   0  0  0  0  0  0  0  0  0  0  0  0
   -1.2417    3.2628   -0.2789 C   0  0  0  0  0  0  0  0  0  0  0  0
    0.1812    3.6823   -0.1854 C   0  0  0  0  0  0  0  0  0  0  0  0
    2.4005    3.3681    0.7168 C   0  0  0  0  0  0  0  0  0  0  0  0
    1.0652    2.9741    0.6287 C   0  0  0  0  0  0  0  0  0  0  0  0
    3.3457    2.6119    1.5879 C   0  0  0  0  0  0  0  0  0  0  0  0
    0.6324    4.7847   -0.9114 C   0  0  0  0  0  0  0  0  0  0  0  0
    2.8516    4.4706   -0.0092 C   0  0  0  0  0  0  0  0  0  0  0  0
    1.9676    5.1789   -0.8231 C   0  0  0  0  0  0  0  0  0  0  0  0
    4.3616   -0.6733   -0.0240 C   0  0  0  0  0  0  0  0  0  0  0  0
    4.3940    0.7796    0.2841 C   0  0  0  0  0  0  0  0  0  0  0  0
    3.1418   -2.7530   -0.1803 C   0  0  0  0  0  0  0  0  0  0  0  0
    3.1714   -1.3887    0.1086 C   0  0  0  0  0  0  0  0  0  0  0  0
    5.5222   -1.3224   -0.4455 C   0  0  0  0  0  0  0  0  0  0  0  0
    1.9072   -3.4950   -0.0442 C   0  0  0  0  0  0  0  0  0  0  0  0
    4.3023   -3.4021   -0.6019 C   0  0  0  0  0  0  0  0  0  0  0  0
    5.4924   -2.6867   -0.7347 C   0  0  0  0  0  0  0  0  0  0  0  0
    0.9490   -3.1268    0.8937 C   0  0  0  0  0  0  0  0  0  0  0  0
    1.6423   -4.5949   -0.8442 C   0  0  0  0  0  0  0  0  0  0  0  0
   -0.2280   -3.8592    1.0015 C   0  0  0  0  0  0  0  0  0  0  0  0
   -0.3973   -4.9427    0.1547 C   0  0  0  0  0  0  0  0  0  0  0  0
   -6.7997   -1.0211    1.4759 H   0  0  0  0  0  0  0  0  0  0  0  0
   -8.1537   -0.0867   -0.4312 H   0  0  0  0  0  0  0  0  0  0  0  0
   -6.9322   -0.6569   -1.5674 H   0  0  0  0  0  0  0  0  0  0  0  0
   -4.8068   -2.3543    1.1359 H   0  0  0  0  0  0  0  0  0  0  0  0
   -5.0067   -2.3641   -0.6227 H   0  0  0  0  0  0  0  0  0  0  0  0
   -6.6642    1.5234    0.5548 H   0  0  0  0  0  0  0  0  0  0  0  0
   -6.4538    1.6717   -1.1937 H   0  0  0  0  0  0  0  0  0  0  0  0
   -8.4379   -2.3724    0.4469 H   0  0  0  0  0  0  0  0  0  0  0  0
   -7.1970   -3.2952    0.9703 H   0  0  0  0  0  0  0  0  0  0  0  0
   -0.7201    1.2711    0.1281 H   0  0  0  0  0  0  0  0  0  0  0  0
    0.7330    2.1355    1.2343 H   0  0  0  0  0  0  0  0  0  0  0  0
    4.3453    3.0617    1.5765 H   0  0  0  0  0  0  0  0  0  0  0  0
    2.9923    2.6413    2.6251 H   0  0  0  0  0  0  0  0  0  0  0  0
   -0.0389    5.3467   -1.5553 H   0  0  0  0  0  0  0  0  0  0  0  0
    3.8890    4.7892    0.0483 H   0  0  0  0  0  0  0  0  0  0  0  0
    2.3193    6.0364   -1.3894 H   0  0  0  0  0  0  0  0  0  0  0  0
    2.8412    0.5733    1.6768 H   0  0  0  0  0  0  0  0  0  0  0  0
    2.2551   -0.8686    0.3722 H   0  0  0  0  0  0  0  0  0  0  0  0
    6.4602   -0.7834   -0.5490 H   0  0  0  0  0  0  0  0  0  0  0  0
    4.3314   -4.4679   -0.8114 H   0  0  0  0  0  0  0  0  0  0  0  0
    6.3980   -3.1931   -1.0560 H   0  0  0  0  0  0  0  0  0  0  0  0
    1.0899   -2.2947    1.5780 H   0  0  0  0  0  0  0  0  0  0  0  0
    2.3194   -4.9370   -1.6206 H   0  0  0  0  0  0  0  0  0  0  0  0
   -0.9865   -3.5945    1.7293 H   0  0  0  0  0  0  0  0  0  0  0  0
   -1.2972   -5.5471    0.1997 H   0  0  0  0  0  0  0  0  0  0  0  0
  1 13  1  0  0  0  0
  1 15  1  0  0  0  0
  2 16  2  0  0  0  0
  3 25  2  0  0  0  0
  4  9  1  0  0  0  0
  4 43  1  0  0  0  0
  4 44  1  0  0  0  0
  5 14  1  0  0  0  0
  5 15  2  0  0  0  0
  6 15  1  0  0  0  0
  6 16  1  0  0  0  0
  6 45  1  0  0  0  0
  7 20  1  0  0  0  0
  7 25  1  0  0  0  0
  7 52  1  0  0  0  0
  8 33  1  0  0  0  0
  8 35  2  0  0  0  0
  9 10  1  0  0  0  0
  9 11  1  0  0  0  0
  9 36  1  0  0  0  0
 10 12  1  0  0  0  0
 10 37  1  0  0  0  0
 10 38  1  0  0  0  0
 11 13  1  0  0  0  0
 11 39  1  0  0  0  0
 11 40  1  0  0  0  0
 12 14  1  0  0  0  0
 12 41  1  0  0  0  0
 12 42  1  0  0  0  0
 13 14  2  0  0  0  0
 16 17  1  0  0  0  0
 17 19  1  0  0  0  0
 17 21  2  0  0  0  0
 18 19  2  0  0  0  0
 18 20  1  0  0  0  0
 18 22  1  0  0  0  0
 19 46  1  0  0  0  0
 20 47  1  0  0  0  0
 20 48  1  0  0  0  0
 21 23  1  0  0  0  0
 21 49  1  0  0  0  0
 22 23  2  0  0  0  0
 22 50  1  0  0  0  0
 23 51  1  0  0  0  0
 24 25  1  0  0  0  0
 24 27  1  0  0  0  0
 24 28  2  0  0  0  0
 26 27  2  0  0  0  0
 26 29  1  0  0  0  0
 26 30  1  0  0  0  0
 27 53  1  0  0  0  0
 28 31  1  0  0  0  0
 28 54  1  0  0  0  0
 29 32  1  0  0  0  0
 29 33  2  0  0  0  0
 30 31  2  0  0  0  0
 30 55  1  0  0  0  0
 31 56  1  0  0  0  0
 32 34  2  0  0  0  0
 32 57  1  0  0  0  0
 33 58  1  0  0  0  0
 34 35  1  0  0  0  0
 34 59  1  0  0  0  0
 35 60  1  0  0  0  0
M  END
> <PUBCHEM_COMPOUND_CID>
84973045

> <PUBCHEM_CONFORMER_RMSD>
1.4

> <PUBCHEM_CONFORMER_DIVERSEORDER>
1
95
41
54
159
53
26
24
148
105
39
143
49
65
122
101
78
81
70
74
102
125
83
6
45
35
130
18
44
152
109
121
107
58
103
116
89
155
46
47
113
36
147
156
11
75
158
162
72
62
10
161
91
128
150
154
63
157
27
93
145
82
144
118
77
135
110
97
112
90
43
92
73
66
51
108
20
100
59
42
50
136
137
15
7
30
124
134
60
142
111
25
55
80
21
85
19
68
56
16
132
52
141
71
163
32
146
61
115
13
48
140
133
151
104
5
126
14
84
37
94
153
64
98
12
114
17
138
57
76
131
33
79
129
38
69
119
40
34
149
29
99
67
106
87
31
8
96
123
120
22
117
127
23
139
2
28
160
3
4
88
86
9

> <PUBCHEM_MMFF94_PARTIAL_CHARGES>
48
1 -0.08
11 0.18
12 0.18
13 -0.14
14 0.05
15 0.44
16 0.54
17 0.09
18 -0.14
19 -0.15
2 -0.57
20 0.44
21 -0.15
22 -0.15
23 -0.15
24 0.09
25 0.54
27 -0.15
28 -0.15
3 -0.57
30 -0.15
31 -0.15
32 -0.15
33 0.16
34 -0.15
35 0.16
4 -0.99
43 0.36
44 0.36
45 0.37
46 0.15
49 0.15
5 -0.57
50 0.15
51 0.15
52 0.37
53 0.15
54 0.15
55 0.15
56 0.15
57 0.15
58 0.15
59 0.15
6 -0.49
60 0.15
7 -0.73
8 -0.62
9 0.27

> <PUBCHEM_EFFECTIVE_ROTOR_COUNT>
8.8

> <PUBCHEM_PHARMACOPHORE_FEATURES>
12
1 2 acceptor
1 3 acceptor
1 4 cation
1 4 donor
1 6 donor
1 7 donor
1 8 acceptor
5 1 5 13 14 15 rings
6 17 18 19 21 22 23 rings
6 24 26 27 28 30 31 rings
6 8 29 32 33 34 35 rings
6 9 10 11 12 13 14 rings

> <PUBCHEM_HEAVY_ATOM_COUNT>
35

> <PUBCHEM_ATOM_DEF_STEREO_COUNT>
1

> <PUBCHEM_ATOM_UDEF_STEREO_COUNT>
0

> <PUBCHEM_BOND_DEF_STEREO_COUNT>
0

> <PUBCHEM_BOND_UDEF_STEREO_COUNT>
0

> <PUBCHEM_ISOTOPIC_ATOM_COUNT>
0

> <PUBCHEM_COMPONENT_COUNT>
1

> <PUBCHEM_CACTVS_TAUTO_COUNT>
6

> <PUBCHEM_CONFORMER_ID>
051095F500000001

> <PUBCHEM_MMFF94_ENERGY>
85.6075

> <PUBCHEM_FEATURE_SELFOVERLAP>
60.966

> <PUBCHEM_SHAPE_FINGERPRINT>
10075450 59 17914352199306018255
10316853 100 18337110180282275346
10864689 126 18409730621326719951
11513181 2 18053386792397830446
117089 54 18341336574314959452
11828042 200 18122924036131222110
13383661 66 18342177730695981704
1361 2 18338795731691974177
13989917 61 18266461082404937419
14143925 63 18410582785750860366
14725015 67 18337096862148132994
15320467 1 18410293648346368182
15400415 2 17762058040352173717
15483637 11 17762058735840378684
15538507 32 18338244846507785934
15721738 15 17252556021360307013
15927050 60 17979359990208818758
19301676 85 17617371789350207589
19611394 137 18115324370536551091
20156587 191 18261385587372671549
20764821 26 17833267897949273028
21133410 58 18263066847366047791
21133410 62 18188192256633780647
21792965 11 17397548606281580702
23559900 14 18409161122065052441
325973 47 18337677519761000682
3882209 13 17181051494118695323
5047190 2 18058153090001142271
5309563 4 18339079276658447829
5776283 40 18266188395522054220
6176135 31 18196083567676773497
636783 129 18269297763198373731
636783 205 17687470483006932459
6422251 121 18266173937997088183
86090 222 18412259536730124272

> <PUBCHEM_SHAPE_MULTIPOLES>
687.49
15.04
9.27
0.95
23.72
1.03
-0.14
-7.28
0.92
-7.5
1.46
-0.53
0.13
1.9

> <PUBCHEM_SHAPE_SELFOVERLAP>
1495.142

> <PUBCHEM_SHAPE_VOLUME>
376.5

> <PUBCHEM_COORDINATE_TYPE>
2
5
10

$$$$
84973046
  -OEChem-05102415103D

 60 64  0     1  0  0  0  0  0999 V2000
   -2.6439    0.4453   -0.3093 S   0  0  0  0  0  0  0  0  0  0  0  0
   -2.0759   -4.1251    0.5394 O   0  0  0  0  0  0  0  0  0  0  0  0
    5.2103   -1.4946    0.2974 O   0  0  0  0  0  0  0  0  0  0  0  0
   -7.4484    2.6112   -0.2057 N   0  0  0  0  0  0  0  0  0  0  0  0
   -3.9038   -1.7487    0.2529 N   0  0  0  0  0  0  0  0  0  0  0  0
   -1.5067   -1.8929    0.0387 N   0  0  0  0  0  0  0  0  0  0  0  0
    3.4578   -1.2314   -1.1989 N   0  0  0  0  0  0  0  0  0  0  0  0
    0.5072    5.3327    0.7463 N   0  0  0  0  0  0  0  0  0  0  0  0
   -6.5678    1.5370    0.2492 C   0  0  1  0  0  0  0  0  0  0  0  0
   -7.1528    0.1641   -0.1540 C   0  0  0  0  0  0  0  0  0  0  0  0
   -5.1518    1.7469   -0.3354 C   0  0  0  0  0  0  0  0  0  0  0  0
   -6.2886   -1.0008    0.3652 C   0  0  0  0  0  0  0  0  0  0  0  0
   -4.3366    0.5111   -0.1481 C   0  0  0  0  0  0  0  0  0  0  0  0
   -4.8392   -0.7410    0.1444 C   0  0  0  0  0  0  0  0  0  0  0  0
   -2.7104   -1.2393    0.0310 C   0  0  0  0  0  0  0  0  0  0  0  0
   -1.2417   -3.2633    0.2838 C   0  0  0  0  0  0  0  0  0  0  0  0
    0.1816   -3.6825    0.1941 C   0  0  0  0  0  0  0  0  0  0  0  0
    2.4022   -3.3708   -0.7056 C   0  0  0  0  0  0  0  0  0  0  0  0
    1.0667   -2.9769   -0.6210 C   0  0  0  0  0  0  0  0  0  0  0  0
    3.3485   -2.6174   -1.5779 C   0  0  0  0  0  0  0  0  0  0  0  0
    0.6320   -4.7823    0.9247 C   0  0  0  0  0  0  0  0  0  0  0  0
    2.8526   -4.4705    0.0249 C   0  0  0  0  0  0  0  0  0  0  0  0
    1.9674   -5.1764    0.8399 C   0  0  0  0  0  0  0  0  0  0  0  0
    4.3608    0.6739    0.0242 C   0  0  0  0  0  0  0  0  0  0  0  0
    4.3942   -0.7801   -0.2788 C   0  0  0  0  0  0  0  0  0  0  0  0
    3.1401    2.7537    0.1713 C   0  0  0  0  0  0  0  0  0  0  0  0
    3.1706    1.3883   -0.1128 C   0  0  0  0  0  0  0  0  0  0  0  0
    5.5205    1.3247    0.4453 C   0  0  0  0  0  0  0  0  0  0  0  0
    1.9054    3.4948    0.0306 C   0  0  0  0  0  0  0  0  0  0  0  0
    4.2997    3.4046    0.5924 C   0  0  0  0  0  0  0  0  0  0  0  0
    5.4898    2.6900    0.7297 C   0  0  0  0  0  0  0  0  0  0  0  0
    0.9489    3.1229   -0.9076 C   0  0  0  0  0  0  0  0  0  0  0  0
    1.6390    4.5974    0.8263 C   0  0  0  0  0  0  0  0  0  0  0  0
   -0.2282    3.8545   -1.0198 C   0  0  0  0  0  0  0  0  0  0  0  0
   -0.3993    4.9410   -0.1770 C   0  0  0  0  0  0  0  0  0  0  0  0
   -6.5099    1.5791    1.3450 H   0  0  0  0  0  0  0  0  0  0  0  0
   -7.2189    0.1028   -1.2491 H   0  0  0  0  0  0  0  0  0  0  0  0
   -8.1730    0.0495    0.2324 H   0  0  0  0  0  0  0  0  0  0  0  0
   -5.2123    1.9626   -1.4105 H   0  0  0  0  0  0  0  0  0  0  0  0
   -4.6735    2.6080    0.1470 H   0  0  0  0  0  0  0  0  0  0  0  0
   -6.5886   -1.9312   -0.1291 H   0  0  0  0  0  0  0  0  0  0  0  0
   -6.4605   -1.1293    1.4406 H   0  0  0  0  0  0  0  0  0  0  0  0
   -7.0839    3.5096    0.1083 H   0  0  0  0  0  0  0  0  0  0  0  0
   -8.3671    2.5068    0.2229 H   0  0  0  0  0  0  0  0  0  0  0  0
   -0.7200   -1.2727   -0.1289 H   0  0  0  0  0  0  0  0  0  0  0  0
    0.7351   -2.1406   -1.2301 H   0  0  0  0  0  0  0  0  0  0  0  0
    4.3482   -3.0667   -1.5633 H   0  0  0  0  0  0  0  0  0  0  0  0
    2.9968   -2.6504   -2.6155 H   0  0  0  0  0  0  0  0  0  0  0  0
   -0.0403   -5.3422    1.5695 H   0  0  0  0  0  0  0  0  0  0  0  0
    3.8902   -4.7890   -0.0298 H   0  0  0  0  0  0  0  0  0  0  0  0
    2.3185   -6.0318    1.4097 H   0  0  0  0  0  0  0  0  0  0  0  0
    2.8436   -0.5792   -1.6747 H   0  0  0  0  0  0  0  0  0  0  0  0
    2.2549    0.8670   -0.3760 H   0  0  0  0  0  0  0  0  0  0  0  0
    6.4585    0.7865    0.5523 H   0  0  0  0  0  0  0  0  0  0  0  0
    4.3282    4.4711    0.7983 H   0  0  0  0  0  0  0  0  0  0  0  0
    6.3947    3.1979    1.0507 H   0  0  0  0  0  0  0  0  0  0  0  0
    1.0911    2.2885   -1.5887 H   0  0  0  0  0  0  0  0  0  0  0  0
    2.3146    4.9425    1.6025 H   0  0  0  0  0  0  0  0  0  0  0  0
   -0.9854    3.5871   -1.7479 H   0  0  0  0  0  0  0  0  0  0  0  0
   -1.2994    5.5450   -0.2256 H   0  0  0  0  0  0  0  0  0  0  0  0
  1 13  1  0  0  0  0
  1 15  1  0  0  0  0
  2 16  2  0  0  0  0
  3 25  2  0  0  0  0
  4  9  1  0  0  0  0
  4 43  1  0  0  0  0
  4 44  1  0  0  0  0
  5 14  1  0  0  0  0
  5 15  2  0  0  0  0
  6 15  1  0  0  0  0
  6 16  1  0  0  0  0
  6 45  1  0  0  0  0
  7 20  1  0  0  0  0
  7 25  1  0  0  0  0
  7 52  1  0  0  0  0
  8 33  1  0  0  0  0
  8 35  2  0  0  0  0
  9 10  1  0  0  0  0
  9 11  1  0  0  0  0
  9 36  1  0  0  0  0
 10 12  1  0  0  0  0
 10 37  1  0  0  0  0
 10 38  1  0  0  0  0
 11 13  1  0  0  0  0
 11 39  1  0  0  0  0
 11 40  1  0  0  0  0
 12 14  1  0  0  0  0
 12 41  1  0  0  0  0
 12 42  1  0  0  0  0
 13 14  2  0  0  0  0
 16 17  1  0  0  0  0
 17 19  1  0  0  0  0
 17 21  2  0  0  0  0
 18 19  2  0  0  0  0
 18 20  1  0  0  0  0
 18 22  1  0  0  0  0
 19 46  1  0  0  0  0
 20 47  1  0  0  0  0
 20 48  1  0  0  0  0
 21 23  1  0  0  0  0
 21 49  1  0  0  0  0
 22 23  2  0  0  0  0
 22 50  1  0  0  0  0
 23 51  1  0  0  0  0
 24 25  1  0  0  0  0
 24 27  1  0  0  0  0
 24 28  2  0  0  0  0
 26 27  2  0  0  0  0
 26 29  1  0  0  0  0
 26 30  1  0  0  0  0
 27 53  1  0  0  0  0
 28 31  1  0  0  0  0
 28 54  1  0  0  0  0
 29 32  1  0  0  0  0
 29 33  2  0  0  0  0
 30 31  2  0  0  0  0
 30 55  1  0  0  0  0
 31 56  1  0  0  0  0
 32 34  2  0  0  0  0
 32 57  1  0  0  0  0
 33 58  1  0  0  0  0
 34 35  1  0  0  0  0
 34 59  1  0  0  0  0
 35 60  1  0  0  0  0
M  END
> <PUBCHEM_COMPOUND_CID>
84973046

> <PUBCHEM_CONFORMER_RMSD>
1.4

> <PUBCHEM_CONFORMER_DIVERSEORDER>
1
108
44
34
67
116
94
162
84
63
33
164
128
160
157
69
15
170
92
46
154
168
22
14
105
111
126
53
146
122
90
80
39
83
59
134
89
119
88
37
13
47
91
70
19
136
125
87
45
101
25
99
36
132
171
40
75
102
24
115
68
142
64
124
20
145
81
29
54
11
55
10
106
107
138
113
93
56
51
71
165
65
76
114
38
112
161
16
35
61
155
86
151
98
79
72
95
147
140
78
121
27
31
144
159
6
74
118
139
52
103
150
17
169
131
143
163
41
172
96
135
167
32
73
153
7
60
141
158
117
85
152
148
104
110
62
21
26
149
123
77
50
166
49
66
58
30
12
48
43
5
82
133
18
28
97
109
156
129
8
57
100
127
23
137
3
120
42
2
4
130
9

> <PUBCHEM_MMFF94_PARTIAL_CHARGES>
48
1 -0.08
11 0.18
12 0.18
13 -0.14
14 0.05
15 0.44
16 0.54
17 0.09
18 -0.14
19 -0.15
2 -0.57
20 0.44
21 -0.15
22 -0.15
23 -0.15
24 0.09
25 0.54
27 -0.15
28 -0.15
3 -0.57
30 -0.15
31 -0.15
32 -0.15
33 0.16
34 -0.15
35 0.16
4 -0.99
43 0.36
44 0.36
45 0.37
46 0.15
49 0.15
5 -0.57
50 0.15
51 0.15
52 0.37
53 0.15
54 0.15
55 0.15
56 0.15
57 0.15
58 0.15
59 0.15
6 -0.49
60 0.15
7 -0.73
8 -0.62
9 0.27

> <PUBCHEM_EFFECTIVE_ROTOR_COUNT>
8.8

> <PUBCHEM_PHARMACOPHORE_FEATURES>
12
1 2 acceptor
1 3 acceptor
1 4 cation
1 4 donor
1 6 donor
1 7 donor
1 8 acceptor
5 1 5 13 14 15 rings
6 17 18 19 21 22 23 rings
6 24 26 27 28 30 31 rings
6 8 29 32 33 34 35 rings
6 9 10 11 12 13 14 rings

> <PUBCHEM_HEAVY_ATOM_COUNT>
35

> <PUBCHEM_ATOM_DEF_STEREO_COUNT>
1

> <PUBCHEM_ATOM_UDEF_STEREO_COUNT>
0

> <PUBCHEM_BOND_DEF_STEREO_COUNT>
0

> <PUBCHEM_BOND_UDEF_STEREO_COUNT>
0

> <PUBCHEM_ISOTOPIC_ATOM_COUNT>
0

> <PUBCHEM_COMPONENT_COUNT>
1

> <PUBCHEM_CACTVS_TAUTO_COUNT>
6

> <PUBCHEM_CONFORMER_ID>
051095F600000001

> <PUBCHEM_MMFF94_ENERGY>
85.603

> <PUBCHEM_FEATURE_SELFOVERLAP>
60.966

> <PUBCHEM_SHAPE_FINGERPRINT>
10439779 11 18123179371656023456
10675989 125 18411419471365825480
10864689 126 18410583859598224534
11828042 226 18120086184125160741
12677640 9 18051975011305053487
12925494 130 18410011070185801747
13165053 371 18338803313227623361
1361 2 18410574023922305601
14117953 113 18341053003906158028
14295345 954 18262241127086905867
14725015 67 18338230450141256962
15274700 259 17243844677398311845
15320291 9 17981609573866910353
15320467 1 18410573950818398384
15351339 4 17973436603701572585
15400415 2 18194682789985279921
15444296 121 17900817468965781840
15773879 134 18341604971823824525
21133410 38 18058746705825780657
21344244 78 17538830400328416882
24204213 92 17630061360759001870
325973 47 17835240421403451060
354706 109 17838592797997101248
437795 96 18335135389054015205
5109719 28 18338808913469358491
54131252 217 17121074522999325071
57676310 18 17980760429575640729
6036956 94 17255959499252927727
99344 41 18412259558737905117

> <PUBCHEM_SHAPE_MULTIPOLES>
687.49
15.04
9.29
0.94
23.72
1
-0.14
-7.23
0.87
-7.44
1.5
-0.61
0.15
1.69

> <PUBCHEM_SHAPE_SELFOVERLAP>
1495.126

> <PUBCHEM_SHAPE_VOLUME>
376.4

> <PUBCHEM_COORDINATE_TYPE>
2
5
10

$$$$
84973047
  -OEChem-05102415103D

 57 61  0     1  0  0  0  0  0999 V2000
   -3.6964   -1.4739    0.5336 S   0  0  0  0  0  0  0  0  0  0  0  0
   -4.0839    2.9011   -1.0975 O   0  0  0  0  0  0  0  0  0  0  0  0
    1.4847    0.3107    1.5092 O   0  0  0  0  0  0  0  0  0  0  0  0
    6.5095   -4.0115   -0.6247 O   0  0  0  0  0  0  0  0  0  0  0  0
   -7.3115   -3.3244    0.5030 N   0  0  2  0  0  0  0  0  0  0  0  0
   -5.3386    0.2190   -0.5490 N   0  0  0  0  0  0  0  0  0  0  0  0
   -3.0915    0.9910   -0.1365 N   0  0  0  0  0  0  0  0  0  0  0  0
    2.3497    2.4500    1.2770 N   0  0  0  0  0  0  0  0  0  0  0  0
    5.2426   -0.8139    0.0177 N   0  0  0  0  0  0  0  0  0  0  0  0
    4.7429    1.2568    0.3163 N   0  0  0  0  0  0  0  0  0  0  0  0
    5.7093    0.4406   -0.0893 N   0  0  0  0  0  0  0  0  0  0  0  0
    5.4943   -3.1523   -0.1997 N   0  0  0  0  0  0  0  0  0  0  0  0
    7.6450   -3.2983   -1.0139 N   0  0  0  0  0  0  0  0  0  0  0  0
    8.0990   -0.9406   -1.0598 N   0  0  0  0  0  0  0  0  0  0  0  0
   -7.8421   -2.6296   -0.6918 C   0  0  0  0  0  0  0  0  0  0  0  0
   -7.4497   -1.1342   -0.7019 C   0  0  0  0  0  0  0  0  0  0  0  0
   -5.8282   -3.3441    0.5141 C   0  0  0  0  0  0  0  0  0  0  0  0
   -6.0153   -0.9631   -0.3485 C   0  0  0  0  0  0  0  0  0  0  0  0
   -5.2892   -1.9815    0.2314 C   0  0  0  0  0  0  0  0  0  0  0  0
   -7.8362   -4.6869    0.5853 C   0  0  0  0  0  0  0  0  0  0  0  0
   -4.1020    0.0662   -0.1221 C   0  0  0  0  0  0  0  0  0  0  0  0
   -3.1174    2.3274   -0.6067 C   0  0  0  0  0  0  0  0  0  0  0  0
   -1.8551    3.0988   -0.4610 C   0  0  0  0  0  0  0  0  0  0  0  0
    0.2313    3.4996    0.6898 C   0  0  0  0  0  0  0  0  0  0  0  0
    1.1955    3.1549    1.7740 C   0  0  0  0  0  0  0  0  0  0  0  0
   -0.9530    2.7754    0.5527 C   0  0  0  0  0  0  0  0  0  0  0  0
   -1.5730    4.1466   -1.3375 C   0  0  0  0  0  0  0  0  0  0  0  0
    0.5134    4.5474   -0.1868 C   0  0  0  0  0  0  0  0  0  0  0  0
    3.9680   -0.8363    0.4942 C   0  0  0  0  0  0  0  0  0  0  0  0
    3.6695    0.4906    0.6771 C   0  0  0  0  0  0  0  0  0  0  0  0
   -0.3889    4.8711   -1.2003 C   0  0  0  0  0  0  0  0  0  0  0  0
    2.3975    1.0657    1.1852 C   0  0  0  0  0  0  0  0  0  0  0  0
    3.1885   -2.0666    0.7210 C   0  0  0  0  0  0  0  0  0  0  0  0
    6.0155   -1.9337   -0.3313 C   0  0  0  0  0  0  0  0  0  0  0  0
    7.3158   -2.0220   -0.8233 C   0  0  0  0  0  0  0  0  0  0  0  0
   -8.9372   -2.6904   -0.7118 H   0  0  0  0  0  0  0  0  0  0  0  0
   -7.4734   -3.1155   -1.6056 H   0  0  0  0  0  0  0  0  0  0  0  0
   -8.0586   -0.5899    0.0301 H   0  0  0  0  0  0  0  0  0  0  0  0
   -7.6527   -0.7060   -1.6894 H   0  0  0  0  0  0  0  0  0  0  0  0
   -5.4443   -4.0390   -0.2444 H   0  0  0  0  0  0  0  0  0  0  0  0
   -5.4815   -3.6856    1.4967 H   0  0  0  0  0  0  0  0  0  0  0  0
   -7.5506   -5.2932   -0.2817 H   0  0  0  0  0  0  0  0  0  0  0  0
   -7.4723   -5.1851    1.4908 H   0  0  0  0  0  0  0  0  0  0  0  0
   -8.9297   -4.6741    0.6520 H   0  0  0  0  0  0  0  0  0  0  0  0
   -2.2143    0.6221    0.2185 H   0  0  0  0  0  0  0  0  0  0  0  0
    1.5533    4.0694    2.2613 H   0  0  0  0  0  0  0  0  0  0  0  0
    0.7145    2.5528    2.5540 H   0  0  0  0  0  0  0  0  0  0  0  0
   -1.1620    1.9858    1.2688 H   0  0  0  0  0  0  0  0  0  0  0  0
   -2.2601    4.4112   -2.1369 H   0  0  0  0  0  0  0  0  0  0  0  0
    1.4327    5.1189   -0.0902 H   0  0  0  0  0  0  0  0  0  0  0  0
    3.1536    2.9954    0.9787 H   0  0  0  0  0  0  0  0  0  0  0  0
   -0.1686    5.6863   -1.8833 H   0  0  0  0  0  0  0  0  0  0  0  0
    3.0367   -2.6235   -0.2096 H   0  0  0  0  0  0  0  0  0  0  0  0
    3.6612   -2.7093    1.4710 H   0  0  0  0  0  0  0  0  0  0  0  0
    2.1861   -1.8619    1.1028 H   0  0  0  0  0  0  0  0  0  0  0  0
    7.7925    0.0132   -0.8947 H   0  0  0  0  0  0  0  0  0  0  0  0
    9.0442   -1.0323   -1.4189 H   0  0  0  0  0  0  0  0  0  0  0  0
  1 19  1  0  0  0  0
  1 21  1  0  0  0  0
  2 22  2  0  0  0  0
  3 32  2  0  0  0  0
  4 12  1  0  0  0  0
  4 13  1  0  0  0  0
  5 15  1  0  0  0  0
  5 17  1  0  0  0  0
  5 20  1  0  0  0  0
  6 18  1  0  0  0  0
  6 21  2  0  0  0  0
  7 21  1  0  0  0  0
  7 22  1  0  0  0  0
  7 45  1  0  0  0  0
  8 25  1  0  0  0  0
  8 32  1  0  0  0  0
  8 51  1  0  0  0  0
  9 11  1  0  0  0  0
  9 29  1  0  0  0  0
  9 34  1  0  0  0  0
 10 11  2  0  0  0  0
 10 30  1  0  0  0  0
 12 34  2  0  0  0  0
 13 35  2  0  0  0  0
 14 35  1  0  0  0  0
 14 56  1  0  0  0  0
 14 57  1  0  0  0  0
 15 16  1  0  0  0  0
 15 36  1  0  0  0  0
 15 37  1  0  0  0  0
 16 18  1  0  0  0  0
 16 38  1  0  0  0  0
 16 39  1  0  0  0  0
 17 19  1  0  0  0  0
 17 40  1  0  0  0  0
 17 41  1  0  0  0  0
 18 19  2  0  0  0  0
 20 42  1  0  0  0  0
 20 43  1  0  0  0  0
 20 44  1  0  0  0  0
 22 23  1  0  0  0  0
 23 26  1  0  0  0  0
 23 27  2  0  0  0  0
 24 25  1  0  0  0  0
 24 26  2  0  0  0  0
 24 28  1  0  0  0  0
 25 46  1  0  0  0  0
 25 47  1  0  0  0  0
 26 48  1  0  0  0  0
 27 31  1  0  0  0  0
 27 49  1  0  0  0  0
 28 31  2  0  0  0  0
 28 50  1  0  0  0  0
 29 30  2  0  0  0  0
 29 33  1  0  0  0  0
 30 32  1  0  0  0  0
 31 52  1  0  0  0  0
 33 53  1  0  0  0  0
 33 54  1  0  0  0  0
 33 55  1  0  0  0  0
 34 35  1  0  0  0  0
M  END
> <PUBCHEM_COMPOUND_CID>
84973047

> <PUBCHEM_CONFORMER_RMSD>
1.4

> <PUBCHEM_CONFORMER_DIVERSEORDER>
5
62
65
36
77
86
25
82
27
8
10
63
64
71
42
54
47
83
51
29
70
44
66
106
97
21
74
94
76
48
55
78
17
72
30
58
59
46
43
101
85
18
33
7
57
35
40
61
6
99
24
26
34
80
79
98
95
69
102
67
23
96
90
20
31
12
50
28
75
56
108
39
93
41
45
22
37
73
4
32
103
88
11
89
38
104
81
49
60
53
87
107
1
19
91
13
9
105
52
2
14
3
16
84
68
15
92
100

> <PUBCHEM_MMFF94_PARTIAL_CHARGES>
43
1 -0.08
10 -0.23
11 -0.42
12 -0.41
13 -0.41
14 -0.88
15 0.27
16 0.18
17 0.45
18 0.05
19 -0.14
2 -0.57
20 0.27
21 0.44
22 0.54
23 0.09
24 -0.14
25 0.44
26 -0.15
27 -0.15
28 -0.15
29 -0.33
3 -0.57
30 0.14
31 -0.15
32 0.72
33 0.18
34 0.21
35 0.37
4 0.24
45 0.37
48 0.15
49 0.15
5 -0.81
50 0.15
51 0.37
52 0.15
56 0.4
57 0.4
6 -0.57
7 -0.49
8 -0.73
9 0.65

> <PUBCHEM_EFFECTIVE_ROTOR_COUNT>
8.8

> <PUBCHEM_PHARMACOPHORE_FEATURES>
13
1 14 donor
1 2 acceptor
1 3 acceptor
1 5 cation
1 7 donor
1 8 donor
3 13 14 35 cation
3 9 12 34 cation
5 1 6 18 19 21 rings
5 4 12 13 34 35 rings
5 9 10 11 29 30 rings
6 23 24 26 27 28 31 rings
6 5 15 16 17 18 19 rings

> <PUBCHEM_HEAVY_ATOM_COUNT>
35

> <PUBCHEM_ATOM_DEF_STEREO_COUNT>
0

> <PUBCHEM_ATOM_UDEF_STEREO_COUNT>
0

> <PUBCHEM_BOND_DEF_STEREO_COUNT>
0

> <PUBCHEM_BOND_UDEF_STEREO_COUNT>
0

> <PUBCHEM_ISOTOPIC_ATOM_COUNT>
0

> <PUBCHEM_COMPONENT_COUNT>
1

> <PUBCHEM_CACTVS_TAUTO_COUNT>
12

> <PUBCHEM_CONFORMER_ID>
051095F700000005

> <PUBCHEM_MMFF94_ENERGY>
70.6531

> <PUBCHEM_FEATURE_SELFOVERLAP>
66.106

> <PUBCHEM_SHAPE_FINGERPRINT>
10049733 31 18336846259475941499
10319688 140 18193840572414942164
11409948 41 17910936261855664415
11621639 208 17467075575820301467
117089 54 18411140246741130495
11756154 67 18411420622449007967
11761917 116 18412832374262919430
12342043 65 18201710743792435152
12645989 146 18341613745798463991
12717326 120 18265602210006747330
13383661 66 17916880014955382894
1361 4 18268431227391264870
1361 87 18337658720826556341
13690498 29 18337668611935389068
13782708 43 18201994417470043258
13785724 45 18335699507671323853
13989917 61 17975412735561405771
15152005 1 18341894108210333951
15274700 34 18336534033097458920
15320295 44 18263374616338656900
15448158 6 18340481261732707903
15510800 12 18341317951046892825
15530120 55 17677633994206611852
19611394 137 18189907581443454051
21095086 4 18412547630320334179
21130935 74 18053666061032540147
21196832 93 18411420566994039782
21307412 95 18337941282862919101
21360442 43 17763185744307628692
21716022 299 18115880752804488445
21796203 349 16702294651578773184
229767 8 18412546509096538567
24204213 62 17612884003909713372
255183 451 18336827601863206757
3862424 121 18408890663019826653
4017518 198 17541954525728603220
4330586 98 17896335751848780366
44426699 300 18338532858208268595
44880168 125 17846204566809677375
484989 97 18343019953099083554
57816373 69 18055342794505010749
6057620 51 18260555524401473718
636783 161 17983843765455081551
9980921 52 17629175373160963711

> <PUBCHEM_SHAPE_MULTIPOLES>
656.72
24.35
7.43
1.2
0.63
3.47
-0.15
-42.83
5.9
2.11
1.27
-0.57
0.66
3.95

> <PUBCHEM_SHAPE_SELFOVERLAP>
1417.103

> <PUBCHEM_SHAPE_VOLUME>
363.7

> <PUBCHEM_COORDINATE_TYPE>
2
5
10

$$$$
56601341
  -OEChem-05102415103D

 64 69  0     1  0  0  0  0  0999 V2000
   -2.7111    1.3242    0.0746 S   0  0  0  0  0  0  0  0  0  0  0  0
   -4.5304   -2.9285   -0.6713 O   0  0  0  0  0  0  0  0  0  0  0  0
    1.0904   -1.4608    1.7066 O   0  0  0  0  0  0  0  0  0  0  0  0
    5.1783    3.5985   -0.8292 O   0  0  0  0  0  0  0  0  0  0  0  0
   -5.4848    4.2007   -0.6511 N   0  0  2  0  0  0  0  0  0  0  0  0
   -4.9023    0.0546   -0.4924 N   0  0  0  0  0  0  0  0  0  0  0  0
   -2.9157   -1.2792   -0.1921 N   0  0  0  0  0  0  0  0  0  0  0  0
    4.2113    0.2485   -0.5257 N   0  0  0  0  0  0  0  0  0  0  0  0
    1.9093   -3.4315    0.7983 N   0  0  0  0  0  0  0  0  0  0  0  0
    3.8612   -1.8739   -0.5452 N   0  0  0  0  0  0  0  0  0  0  0  0
    4.6417   -0.9171   -1.0352 N   0  0  0  0  0  0  0  0  0  0  0  0
    4.3553    2.5971   -0.3102 N   0  0  0  0  0  0  0  0  0  0  0  0
    6.1483    3.0648   -1.6800 N   0  0  0  0  0  0  0  0  0  0  0  0
    6.5947    0.8043   -2.3563 N   0  0  0  0  0  0  0  0  0  0  0  0
   -6.6600    3.4074   -0.2254 C   0  0  0  0  0  0  0  0  0  0  0  0
   -6.5538    1.9372   -0.6917 C   0  0  0  0  0  0  0  0  0  0  0  0
   -4.2346    3.7145   -0.0178 C   0  0  0  0  0  0  0  0  0  0  0  0
   -5.1915    1.3993   -0.4336 C   0  0  0  0  0  0  0  0  0  0  0  0
   -4.1301    2.2314   -0.1477 C   0  0  0  0  0  0  0  0  0  0  0  0
   -5.6830    5.6191   -0.3559 C   0  0  0  0  0  0  0  0  0  0  0  0
   -3.6198   -0.1051   -0.2382 C   0  0  0  0  0  0  0  0  0  0  0  0
   -3.3793   -2.6016   -0.4027 C   0  0  0  0  0  0  0  0  0  0  0  0
   -2.3577   -3.6775   -0.3105 C   0  0  0  0  0  0  0  0  0  0  0  0
   -0.2645   -4.5064    0.5659 C   0  0  0  0  0  0  0  0  0  0  0  0
    0.9488   -4.3133    1.4115 C   0  0  0  0  0  0  0  0  0  0  0  0
   -1.2229   -3.4968    0.4803 C   0  0  0  0  0  0  0  0  0  0  0  0
    3.1461    0.0711    0.3025 C   0  0  0  0  0  0  0  0  0  0  0  0
    2.9399   -1.2853    0.2760 C   0  0  0  0  0  0  0  0  0  0  0  0
   -2.5340   -4.8680   -1.0158 C   0  0  0  0  0  0  0  0  0  0  0  0
    2.4558    1.1266    1.0047 C   0  0  0  0  0  0  0  0  0  0  0  0
   -0.4406   -5.6969   -0.1394 C   0  0  0  0  0  0  0  0  0  0  0  0
    1.8988   -2.0582    1.0009 C   0  0  0  0  0  0  0  0  0  0  0  0
   -1.5754   -5.8777   -0.9302 C   0  0  0  0  0  0  0  0  0  0  0  0
    4.8258    1.4719   -0.8451 C   0  0  0  0  0  0  0  0  0  0  0  0
    2.8728    1.5041    2.2810 C   0  0  0  0  0  0  0  0  0  0  0  0
    1.3716    1.7689    0.4069 C   0  0  0  0  0  0  0  0  0  0  0  0
    2.2058    2.5240    2.9597 C   0  0  0  0  0  0  0  0  0  0  0  0
    0.7045    2.7888    1.0853 C   0  0  0  0  0  0  0  0  0  0  0  0
    5.9097    1.7546   -1.6734 C   0  0  0  0  0  0  0  0  0  0  0  0
    1.1215    3.1664    2.3618 C   0  0  0  0  0  0  0  0  0  0  0  0
   -7.5784    3.8300   -0.6511 H   0  0  0  0  0  0  0  0  0  0  0  0
   -6.7630    3.4427    0.8679 H   0  0  0  0  0  0  0  0  0  0  0  0
   -6.7561    1.8779   -1.7680 H   0  0  0  0  0  0  0  0  0  0  0  0
   -7.3068    1.3311   -0.1766 H   0  0  0  0  0  0  0  0  0  0  0  0
   -4.2125    3.9770    1.0481 H   0  0  0  0  0  0  0  0  0  0  0  0
   -3.3762    4.1924   -0.5047 H   0  0  0  0  0  0  0  0  0  0  0  0
   -5.8134    5.8041    0.7164 H   0  0  0  0  0  0  0  0  0  0  0  0
   -4.8284    6.2080   -0.7070 H   0  0  0  0  0  0  0  0  0  0  0  0
   -6.5649    6.0014   -0.8816 H   0  0  0  0  0  0  0  0  0  0  0  0
   -1.9258   -1.1369   -0.0151 H   0  0  0  0  0  0  0  0  0  0  0  0
    0.6609   -3.9185    2.3934 H   0  0  0  0  0  0  0  0  0  0  0  0
    1.4588   -5.2661    1.5933 H   0  0  0  0  0  0  0  0  0  0  0  0
   -1.0922   -2.6007    1.0771 H   0  0  0  0  0  0  0  0  0  0  0  0
   -3.4080   -5.0271   -1.6419 H   0  0  0  0  0  0  0  0  0  0  0  0
    0.2987   -6.4915   -0.0840 H   0  0  0  0  0  0  0  0  0  0  0  0
    2.6050   -3.8366    0.1783 H   0  0  0  0  0  0  0  0  0  0  0  0
   -1.7117   -6.8040   -1.4806 H   0  0  0  0  0  0  0  0  0  0  0  0
    3.7161    1.0131    2.7611 H   0  0  0  0  0  0  0  0  0  0  0  0
    1.0350    1.4875   -0.5882 H   0  0  0  0  0  0  0  0  0  0  0  0
    2.5308    2.8183    3.9533 H   0  0  0  0  0  0  0  0  0  0  0  0
   -0.1337    3.2965    0.6179 H   0  0  0  0  0  0  0  0  0  0  0  0
    0.6033    3.9619    2.8891 H   0  0  0  0  0  0  0  0  0  0  0  0
    6.3658   -0.1840   -2.3122 H   0  0  0  0  0  0  0  0  0  0  0  0
    7.3817    1.0370   -2.9540 H   0  0  0  0  0  0  0  0  0  0  0  0
  1 19  1  0  0  0  0
  1 21  1  0  0  0  0
  2 22  2  0  0  0  0
  3 32  2  0  0  0  0
  4 12  1  0  0  0  0
  4 13  1  0  0  0  0
  5 15  1  0  0  0  0
  5 17  1  0  0  0  0
  5 20  1  0  0  0  0
  6 18  1  0  0  0  0
  6 21  2  0  0  0  0
  7 21  1  0  0  0  0
  7 22  1  0  0  0  0
  7 50  1  0  0  0  0
  8 11  1  0  0  0  0
  8 27  1  0  0  0  0
  8 34  1  0  0  0  0
  9 25  1  0  0  0  0
  9 32  1  0  0  0  0
  9 56  1  0  0  0  0
 10 11  2  0  0  0  0
 10 28  1  0  0  0  0
 12 34  2  0  0  0  0
 13 39  2  0  0  0  0
 14 39  1  0  0  0  0
 14 63  1  0  0  0  0
 14 64  1  0  0  0  0
 15 16  1  0  0  0  0
 15 41  1  0  0  0  0
 15 42  1  0  0  0  0
 16 18  1  0  0  0  0
 16 43  1  0  0  0  0
 16 44  1  0  0  0  0
 17 19  1  0  0  0  0
 17 45  1  0  0  0  0
 17 46  1  0  0  0  0
 18 19  2  0  0  0  0
 20 47  1  0  0  0  0
 20 48  1  0  0  0  0
 20 49  1  0  0  0  0
 22 23  1  0  0  0  0
 23 26  1  0  0  0  0
 23 29  2  0  0  0  0
 24 25  1  0  0  0  0
 24 26  2  0  0  0  0
 24 31  1  0  0  0  0
 25 51  1  0  0  0  0
 25 52  1  0  0  0  0
 26 53  1  0  0  0  0
 27 28  2  0  0  0  0
 27 30  1  0  0  0  0
 28 32  1  0  0  0  0
 29 33  1  0  0  0  0
 29 54  1  0  0  0  0
 30 35  2  0  0  0  0
 30 36  1  0  0  0  0
 31 33  2  0  0  0  0
 31 55  1  0  0  0  0
 33 57  1  0  0  0  0
 34 39  1  0  0  0  0
 35 37  1  0  0  0  0
 35 58  1  0  0  0  0
 36 38  2  0  0  0  0
 36 59  1  0  0  0  0
 37 40  2  0  0  0  0
 37 60  1  0  0  0  0
 38 40  1  0  0  0  0
 38 61  1  0  0  0  0
 40 62  1  0  0  0  0
M  END
> <PUBCHEM_COMPOUND_CID>
56601341

> <PUBCHEM_CONFORMER_RMSD>
1.4

> <PUBCHEM_CONFORMER_DIVERSEORDER>
1
11
74
21
48
26
132
52
133
38
113
41
112
27
83
115
109
88
136
96
61
95
118
127
110
89
63
10
42
31
135
90
81
70
92
12
120
86
73
57
8
33
124
94
79
119
34
71
93
104
98
23
126
84
111
44
64
45
22
43
53
103
130
55
122
62
87
116
131
30
17
97
68
117
125
50
100
14
121
46
25
77
134
59
75
20
65
47
66
91
72
29
107
18
56
76
54
137
101
60
51
129
28
49
36
99
16
35
80
39
114
40
67
58
37
105
32
78
24
123
82
19
2
102
106
108
13
69
85
128
3
4
5
6
9
7
15

> <PUBCHEM_MMFF94_PARTIAL_CHARGES>
53
1 -0.08
10 -0.23
11 -0.42
12 -0.41
13 -0.41
14 -0.88
15 0.27
16 0.18
17 0.45
18 0.05
19 -0.14
2 -0.57
20 0.27
21 0.44
22 0.54
23 0.09
24 -0.14
25 0.44
26 -0.15
27 -0.2
28 0.14
29 -0.15
3 -0.57
30 0.05
31 -0.15
32 0.72
33 -0.15
34 0.21
35 -0.15
36 -0.15
37 -0.15
38 -0.15
39 0.37
4 0.24
40 -0.15
5 -0.81
50 0.37
53 0.15
54 0.15
55 0.15
56 0.37
57 0.15
58 0.15
59 0.15
6 -0.57
60 0.15
61 0.15
62 0.15
63 0.4
64 0.4
7 -0.49
8 0.65
9 -0.73

> <PUBCHEM_EFFECTIVE_ROTOR_COUNT>
9.8

> <PUBCHEM_PHARMACOPHORE_FEATURES>
14
1 14 donor
1 2 acceptor
1 3 acceptor
1 5 cation
1 7 donor
1 9 donor
3 13 14 39 cation
3 8 12 34 cation
5 1 6 18 19 21 rings
5 4 12 13 34 39 rings
5 8 10 11 27 28 rings
6 23 24 26 29 31 33 rings
6 30 35 36 37 38 40 rings
6 5 15 16 17 18 19 rings

> <PUBCHEM_HEAVY_ATOM_COUNT>
40

> <PUBCHEM_ATOM_DEF_STEREO_COUNT>
0

> <PUBCHEM_ATOM_UDEF_STEREO_COUNT>
0

> <PUBCHEM_BOND_DEF_STEREO_COUNT>
0

> <PUBCHEM_BOND_UDEF_STEREO_COUNT>
0

> <PUBCHEM_ISOTOPIC_ATOM_COUNT>
0

> <PUBCHEM_COMPONENT_COUNT>
1

> <PUBCHEM_CACTVS_TAUTO_COUNT>
12

> <PUBCHEM_CONFORMER_ID>
035FAAFD00000001

> <PUBCHEM_MMFF94_ENERGY>
89.5566

> <PUBCHEM_FEATURE_SELFOVERLAP>
71.183

> <PUBCHEM_SHAPE_FINGERPRINT>
10439779 11 18196344066165696682
10462674 296 17547861110491695251
10483366 6 17908150876120979694
10675989 125 18120939403907864168
10677394 325 17543945333264301094
10940486 97 18262522627401560189
10974685 15 18124584542768336216
11059845 2 18122026967522004242
11093857 5 18268982253771772056
11093857 51 18054776304797281643
11410812 94 18118701044313374308
13944108 23 17905889180437867157
14068700 686 17336445902470401489
14114211 80 18341624663852548555
14790565 3 18409450246003509759
14937079 2 17115785520110281917
15082195 135 17764837262760763501
15320295 198 17397826779462935037
15320467 1 18123454232451722009
15400415 2 18410291372325834357
15961568 22 16898477512675711682
16992727 255 18408892819763107582
19304144 158 17911522309869162516
19319366 153 18268985402151208204
21133410 62 18337968809360358915
21779490 112 18340759459306616937
21859007 373 17695337476076373624
23516275 100 17115501299642147297
24771750 20 18194399992748680621
354706 132 18191034589498806060
508706 21 17979634859811119386
5265222 85 18410018728002175477
53794403 172 18120937205444018223
5776283 40 18194409015942563632

> <PUBCHEM_SHAPE_MULTIPOLES>
759.61
15.13
9.53
1.77
5.58
10.42
0.74
-22.29
-9.17
8.1
-0.54
-3.22
-1.36
-1.31

> <PUBCHEM_SHAPE_SELFOVERLAP>
1660.679

> <PUBCHEM_SHAPE_VOLUME>
413.9

> <PUBCHEM_COORDINATE_TYPE>
2
5
10

$$$$
84973048
  -OEChem-05102415103D

 60 64  0     1  0  0  0  0  0999 V2000
   -3.5026    1.5942    0.6900 S   0  0  0  0  0  0  0  0  0  0  0  0
   -4.4480   -2.6680   -1.0103 O   0  0  0  0  0  0  0  0  0  0  0  0
    3.3247   -3.6835    0.1413 O   0  0  0  0  0  0  0  0  0  0  0  0
   -6.6186    4.1115    0.0208 N   0  0  2  0  0  0  0  0  0  0  0  0
   -5.3509    0.1412   -0.4085 N   0  0  0  0  0  0  0  0  0  0  0  0
   -3.2174   -0.9154   -0.0249 N   0  0  0  0  0  0  0  0  0  0  0  0
    1.7438   -2.4773    1.3352 N   0  0  0  0  0  0  0  0  0  0  0  0
    7.4618    4.4776   -0.6058 N   0  0  0  0  0  0  0  0  0  0  0  0
   -7.6827    3.0876    0.1247 C   0  0  0  0  0  0  0  0  0  0  0  0
   -7.2651    1.7618   -0.5524 C   0  0  0  0  0  0  0  0  0  0  0  0
   -5.3932    3.7071    0.7527 C   0  0  0  0  0  0  0  0  0  0  0  0
   -5.8740    1.3935   -0.1773 C   0  0  0  0  0  0  0  0  0  0  0  0
   -5.0177    2.3062    0.4012 C   0  0  0  0  0  0  0  0  0  0  0  0
   -7.0953    5.4051    0.5085 C   0  0  0  0  0  0  0  0  0  0  0  0
   -4.1028    0.1291    0.0120 C   0  0  0  0  0  0  0  0  0  0  0  0
   -3.4144   -2.2295   -0.5170 C   0  0  0  0  0  0  0  0  0  0  0  0
   -2.2416   -3.1401   -0.4439 C   0  0  0  0  0  0  0  0  0  0  0  0
   -0.1663   -3.7997    0.6022 C   0  0  0  0  0  0  0  0  0  0  0  0
   -1.2647   -2.9429    0.5320 C   0  0  0  0  0  0  0  0  0  0  0  0
    0.8801   -3.5884    1.6441 C   0  0  0  0  0  0  0  0  0  0  0  0
   -2.1202   -4.1941   -1.3496 C   0  0  0  0  0  0  0  0  0  0  0  0
   -0.0447   -4.8536   -0.3034 C   0  0  0  0  0  0  0  0  0  0  0  0
   -1.0218   -5.0508   -1.2793 C   0  0  0  0  0  0  0  0  0  0  0  0
    3.7054   -1.3830    0.3885 C   0  0  0  0  0  0  0  0  0  0  0  0
    2.9115   -2.6209    0.5983 C   0  0  0  0  0  0  0  0  0  0  0  0
    5.1961    0.9418   -0.0060 C   0  0  0  0  0  0  0  0  0  0  0  0
    5.0838   -1.4637    0.1897 C   0  0  0  0  0  0  0  0  0  0  0  0
    3.0724   -0.1400    0.3900 C   0  0  0  0  0  0  0  0  0  0  0  0
    5.8290   -0.3013   -0.0074 C   0  0  0  0  0  0  0  0  0  0  0  0
    3.8179    1.0224    0.1929 C   0  0  0  0  0  0  0  0  0  0  0  0
    5.9692    2.1475   -0.2103 C   0  0  0  0  0  0  0  0  0  0  0  0
    7.2972    2.2035    0.1981 C   0  0  0  0  0  0  0  0  0  0  0  0
    5.3866    3.2552   -0.8162 C   0  0  0  0  0  0  0  0  0  0  0  0
    7.9937    3.3812   -0.0204 C   0  0  0  0  0  0  0  0  0  0  0  0
    6.1687    4.3858   -0.9894 C   0  0  0  0  0  0  0  0  0  0  0  0
   -8.5992    3.4409   -0.3637 H   0  0  0  0  0  0  0  0  0  0  0  0
   -7.9276    2.9036    1.1798 H   0  0  0  0  0  0  0  0  0  0  0  0
   -7.3165    1.8740   -1.6421 H   0  0  0  0  0  0  0  0  0  0  0  0
   -7.9607    0.9657   -0.2656 H   0  0  0  0  0  0  0  0  0  0  0  0
   -4.5763    4.3892    0.4887 H   0  0  0  0  0  0  0  0  0  0  0  0
   -5.5521    3.7675    1.8374 H   0  0  0  0  0  0  0  0  0  0  0  0
   -7.9565    5.7432   -0.0782 H   0  0  0  0  0  0  0  0  0  0  0  0
   -6.3183    6.1691    0.3945 H   0  0  0  0  0  0  0  0  0  0  0  0
   -7.3903    5.3663    1.5632 H   0  0  0  0  0  0  0  0  0  0  0  0
   -2.2977   -0.6631    0.3239 H   0  0  0  0  0  0  0  0  0  0  0  0
   -1.3477   -2.1526    1.2727 H   0  0  0  0  0  0  0  0  0  0  0  0
    0.4091   -3.3818    2.6123 H   0  0  0  0  0  0  0  0  0  0  0  0
    1.4886   -4.4905    1.7791 H   0  0  0  0  0  0  0  0  0  0  0  0
   -2.8674   -4.3626   -2.1206 H   0  0  0  0  0  0  0  0  0  0  0  0
    0.8066   -5.5278   -0.2622 H   0  0  0  0  0  0  0  0  0  0  0  0
   -0.9262   -5.8705   -1.9854 H   0  0  0  0  0  0  0  0  0  0  0  0
    1.4868   -1.5792    1.7300 H   0  0  0  0  0  0  0  0  0  0  0  0
    5.5944   -2.4231    0.1833 H   0  0  0  0  0  0  0  0  0  0  0  0
    1.9989   -0.0340    0.5146 H   0  0  0  0  0  0  0  0  0  0  0  0
    6.8948   -0.4146   -0.1862 H   0  0  0  0  0  0  0  0  0  0  0  0
    3.2859    1.9693    0.2245 H   0  0  0  0  0  0  0  0  0  0  0  0
    7.8041    1.3875    0.7015 H   0  0  0  0  0  0  0  0  0  0  0  0
    4.3666    3.2699   -1.1841 H   0  0  0  0  0  0  0  0  0  0  0  0
    9.0301    3.4790    0.2859 H   0  0  0  0  0  0  0  0  0  0  0  0
    5.7641    5.2741   -1.4633 H   0  0  0  0  0  0  0  0  0  0  0  0
  1 13  1  0  0  0  0
  1 15  1  0  0  0  0
  2 16  2  0  0  0  0
  3 25  2  0  0  0  0
  4  9  1  0  0  0  0
  4 11  1  0  0  0  0
  4 14  1  0  0  0  0
  5 12  1  0  0  0  0
  5 15  2  0  0  0  0
  6 15  1  0  0  0  0
  6 16  1  0  0  0  0
  6 45  1  0  0  0  0
  7 20  1  0  0  0  0
  7 25  1  0  0  0  0
  7 52  1  0  0  0  0
  8 34  2  0  0  0  0
  8 35  1  0  0  0  0
  9 10  1  0  0  0  0
  9 36  1  0  0  0  0
  9 37  1  0  0  0  0
 10 12  1  0  0  0  0
 10 38  1  0  0  0  0
 10 39  1  0  0  0  0
 11 13  1  0  0  0  0
 11 40  1  0  0  0  0
 11 41  1  0  0  0  0
 12 13  2  0  0  0  0
 14 42  1  0  0  0  0
 14 43  1  0  0  0  0
 14 44  1  0  0  0  0
 16 17  1  0  0  0  0
 17 19  1  0  0  0  0
 17 21  2  0  0  0  0
 18 19  2  0  0  0  0
 18 20  1  0  0  0  0
 18 22  1  0  0  0  0
 19 46  1  0  0  0  0
 20 47  1  0  0  0  0
 20 48  1  0  0  0  0
 21 23  1  0  0  0  0
 21 49  1  0  0  0  0
 22 23  2  0  0  0  0
 22 50  1  0  0  0  0
 23 51  1  0  0  0  0
 24 25  1  0  0  0  0
 24 27  2  0  0  0  0
 24 28  1  0  0  0  0
 26 29  2  0  0  0  0
 26 30  1  0  0  0  0
 26 31  1  0  0  0  0
 27 29  1  0  0  0  0
 27 53  1  0  0  0  0
 28 30  2  0  0  0  0
 28 54  1  0  0  0  0
 29 55  1  0  0  0  0
 30 56  1  0  0  0  0
 31 32  2  0  0  0  0
 31 33  1  0  0  0  0
 32 34  1  0  0  0  0
 32 57  1  0  0  0  0
 33 35  2  0  0  0  0
 33 58  1  0  0  0  0
 34 59  1  0  0  0  0
 35 60  1  0  0  0  0
M  END
> <PUBCHEM_COMPOUND_CID>
84973048

> <PUBCHEM_CONFORMER_RMSD>
1

> <PUBCHEM_CONFORMER_DIVERSEORDER>
1
122
143
78
105
64
42
41
128
57
40
71
50
110
93
108
121
103
43
44
81
146
100
34
107
142
153
111
28
45
27
65
37
72
132
73
145
113
16
94
56
11
152
8
88
102
95
154
91
39
133
51
38
119
147
87
118
125
63
22
17
53
116
92
46
52
70
25
69
96
19
24
15
101
60
123
26
77
33
62
66
49
5
90
75
120
48
151
83
4
74
54
137
99
2
36
29
9
112
114
80
106
10
86
18
32
79
89
144
149
138
98
84
68
7
67
13
141
117
47
59
148
140
150
82
134
127
12
85
104
21
129
130
6
14
31
97
30
23
58
115
35
20
124
126
55
76
131
135
61
3
139
136
109

> <PUBCHEM_MMFF94_PARTIAL_CHARGES>
47
1 -0.08
10 0.18
11 0.45
12 0.05
13 -0.14
14 0.27
15 0.44
16 0.54
17 0.09
18 -0.14
19 -0.15
2 -0.57
20 0.44
21 -0.15
22 -0.15
23 -0.15
24 0.09
25 0.54
27 -0.15
28 -0.15
29 -0.15
3 -0.57
30 -0.15
32 -0.15
33 -0.15
34 0.16
35 0.16
4 -0.81
45 0.37
46 0.15
49 0.15
5 -0.57
50 0.15
51 0.15
52 0.37
53 0.15
54 0.15
55 0.15
56 0.15
57 0.15
58 0.15
59 0.15
6 -0.49
60 0.15
7 -0.73
8 -0.62
9 0.27

> <PUBCHEM_EFFECTIVE_ROTOR_COUNT>
8.8

> <PUBCHEM_PHARMACOPHORE_FEATURES>
11
1 2 acceptor
1 3 acceptor
1 4 cation
1 6 donor
1 7 donor
1 8 acceptor
5 1 5 12 13 15 rings
6 17 18 19 21 22 23 rings
6 24 26 27 28 29 30 rings
6 4 9 10 11 12 13 rings
6 8 31 32 33 34 35 rings

> <PUBCHEM_HEAVY_ATOM_COUNT>
35

> <PUBCHEM_ATOM_DEF_STEREO_COUNT>
0

> <PUBCHEM_ATOM_UDEF_STEREO_COUNT>
0

> <PUBCHEM_BOND_DEF_STEREO_COUNT>
0

> <PUBCHEM_BOND_UDEF_STEREO_COUNT>
0

> <PUBCHEM_ISOTOPIC_ATOM_COUNT>
0

> <PUBCHEM_COMPONENT_COUNT>
1

> <PUBCHEM_CACTVS_TAUTO_COUNT>
6

> <PUBCHEM_CONFORMER_ID>
051095F800000001

> <PUBCHEM_MMFF94_ENERGY>
98.2178

> <PUBCHEM_FEATURE_SELFOVERLAP>
55.893

> <PUBCHEM_SHAPE_FINGERPRINT>
10556698 54 17845352488062844065
10673678 19 18269275652105203651
10675989 125 18264209123829917114
10864689 126 18343019995701064856
10917259 128 18196073651573597240
10917259 69 18409732877281562364
10985338 8 18342730863119841010
11374522 174 18263377931299165037
11476731 99 18127403682525412416
11477941 20 17480576487914401086
11479125 193 18409455765041871185
11505856 67 18340476868398688327
11621639 254 18198336454829841183
11761917 142 18052530260778064296
11828042 163 18339651049682737180
11828042 53 18193565682763118820
12013929 29 18411700989524557940
13008946 62 17916872310252909575
13944108 23 17981322288068239803
14026016 13 18412831270430145521
14251764 75 18409448051132984887
14664723 55 18272094842335296105
15001296 14 18335700477748084739
15064981 113 17632305601134391558
15198563 99 17841135960446473255
15274700 147 18339656632608108265
15400415 2 18412542089585857577
155225 6 18339080381024387569
16067689 134 18335709364479214172
16112460 7 18188203329644622326
16728433 110 17978230458543893193
18339144 43 17197438646238871489
19053607 189 18339912792925491120
19302320 297 18121216480796164907
19309040 13 18272930531407911406
20691028 202 18411132532773950056
21792965 106 18050285071357053288
23516275 100 16974192065018863009
23576562 1 17912928284319298839
3388396 114 17042605886242916876
4366758 26 18339646616528323641
437795 171 18116705231916897637
44280116 191 18190759535171291468
5265222 85 18413108377351288729
53794403 172 18124314905190991111
5776283 40 18197214964994360880
5951187 136 18270687437434971078
59520647 147 18409456859932743376
6036956 94 17901955466962151500
6058803 2 18265308716667920410
6176135 31 18336819789190978016
636783 225 18048880698286913509
99344 41 18409166628028944692

> <PUBCHEM_SHAPE_MULTIPOLES>
687.49
24.22
9.44
1.03
2.84
0.87
-0.02
-46.87
2
-3.23
1.21
-0.04
0.69
-4.22

> <PUBCHEM_SHAPE_SELFOVERLAP>
1493.591

> <PUBCHEM_SHAPE_VOLUME>
377

> <PUBCHEM_COORDINATE_TYPE>
2
5
10

$$$$
56601543
  -OEChem-05102415103D

 59 63  0     1  0  0  0  0  0999 V2000
   -3.2572    1.1180    0.4081 S   0  0  0  0  0  0  0  0  0  0  0  0
    5.7382    1.2987   -1.1465 S   0  0  0  0  0  0  0  0  0  0  0  0
   -3.4622   -3.4700   -0.5193 O   0  0  0  0  0  0  0  0  0  0  0  0
    4.4121   -2.8522    0.1077 O   0  0  0  0  0  0  0  0  0  0  0  0
   -6.8287    2.8848   -0.3774 N   0  0  2  0  0  0  0  0  0  0  0  0
   -4.8512   -0.8079   -0.2884 N   0  0  0  0  0  0  0  0  0  0  0  0
   -2.5373   -1.3838    0.0719 N   0  0  0  0  0  0  0  0  0  0  0  0
    2.6956   -1.7711    1.2320 N   0  0  0  0  0  0  0  0  0  0  0  0
    3.7205    0.6570    0.3366 N   0  0  0  0  0  0  0  0  0  0  0  0
    3.2823    5.7449    0.2941 N   0  0  0  0  0  0  0  0  0  0  0  0
   -7.6702    1.7190   -0.0248 C   0  0  0  0  0  0  0  0  0  0  0  0
   -7.0447    0.3946   -0.5197 C   0  0  0  0  0  0  0  0  0  0  0  0
   -5.5105    2.8367    0.3013 C   0  0  0  0  0  0  0  0  0  0  0  0
   -5.5905    0.3510   -0.2118 C   0  0  0  0  0  0  0  0  0  0  0  0
   -4.8940    1.4870    0.1420 C   0  0  0  0  0  0  0  0  0  0  0  0
   -7.5165    4.1353   -0.0588 C   0  0  0  0  0  0  0  0  0  0  0  0
   -3.6026   -0.5243    0.0208 C   0  0  0  0  0  0  0  0  0  0  0  0
   -2.5061   -2.7760   -0.1905 C   0  0  0  0  0  0  0  0  0  0  0  0
   -1.1788   -3.4356   -0.0764 C   0  0  0  0  0  0  0  0  0  0  0  0
    1.0398   -3.5222    0.8764 C   0  0  0  0  0  0  0  0  0  0  0  0
   -0.2059   -2.9036    0.7699 C   0  0  0  0  0  0  0  0  0  0  0  0
    2.0806   -2.9532    1.7803 C   0  0  0  0  0  0  0  0  0  0  0  0
   -0.9059   -4.5861   -0.8165 C   0  0  0  0  0  0  0  0  0  0  0  0
    1.3127   -4.6727    0.1365 C   0  0  0  0  0  0  0  0  0  0  0  0
    0.3399   -5.2046   -0.7103 C   0  0  0  0  0  0  0  0  0  0  0  0
    4.3545   -0.5124   -0.0349 C   0  0  0  0  0  0  0  0  0  0  0  0
    3.8271   -1.8213    0.4295 C   0  0  0  0  0  0  0  0  0  0  0  0
    5.4667   -0.3662   -0.8371 C   0  0  0  0  0  0  0  0  0  0  0  0
    4.3630    1.6749   -0.1914 C   0  0  0  0  0  0  0  0  0  0  0  0
    3.9952    3.0609   -0.0253 C   0  0  0  0  0  0  0  0  0  0  0  0
    6.3713   -1.3829   -1.4119 C   0  0  0  0  0  0  0  0  0  0  0  0
    4.9307    4.0637   -0.2551 C   0  0  0  0  0  0  0  0  0  0  0  0
    2.7037    3.3986    0.3639 C   0  0  0  0  0  0  0  0  0  0  0  0
    4.5278    5.3782   -0.0830 C   0  0  0  0  0  0  0  0  0  0  0  0
    2.4004    4.7428    0.5082 C   0  0  0  0  0  0  0  0  0  0  0  0
   -8.6626    1.8142   -0.4824 H   0  0  0  0  0  0  0  0  0  0  0  0
   -7.8175    1.6753    1.0631 H   0  0  0  0  0  0  0  0  0  0  0  0
   -7.1760    0.3097   -1.6053 H   0  0  0  0  0  0  0  0  0  0  0  0
   -7.5586   -0.4531   -0.0539 H   0  0  0  0  0  0  0  0  0  0  0  0
   -5.6184    3.0504    1.3728 H   0  0  0  0  0  0  0  0  0  0  0  0
   -4.8547    3.5997   -0.1346 H   0  0  0  0  0  0  0  0  0  0  0  0
   -8.4572    4.2090   -0.6155 H   0  0  0  0  0  0  0  0  0  0  0  0
   -6.9072    4.9959   -0.3565 H   0  0  0  0  0  0  0  0  0  0  0  0
   -7.7406    4.2233    1.0103 H   0  0  0  0  0  0  0  0  0  0  0  0
   -1.6650   -0.9152    0.2975 H   0  0  0  0  0  0  0  0  0  0  0  0
   -0.3992   -2.0289    1.3845 H   0  0  0  0  0  0  0  0  0  0  0  0
    1.6322   -2.6756    2.7414 H   0  0  0  0  0  0  0  0  0  0  0  0
    2.8582   -3.6943    2.0003 H   0  0  0  0  0  0  0  0  0  0  0  0
   -1.6476   -5.0138   -1.4858 H   0  0  0  0  0  0  0  0  0  0  0  0
    2.2793   -5.1643    0.2076 H   0  0  0  0  0  0  0  0  0  0  0  0
    0.5532   -6.0993   -1.2878 H   0  0  0  0  0  0  0  0  0  0  0  0
    2.2746   -0.8701    1.4408 H   0  0  0  0  0  0  0  0  0  0  0  0
    6.8529   -1.9634   -0.6180 H   0  0  0  0  0  0  0  0  0  0  0  0
    7.1683   -0.9405   -2.0193 H   0  0  0  0  0  0  0  0  0  0  0  0
    5.8165   -2.0717   -2.0577 H   0  0  0  0  0  0  0  0  0  0  0  0
    5.9629    3.8902   -0.5360 H   0  0  0  0  0  0  0  0  0  0  0  0
    1.9401    2.6505    0.5512 H   0  0  0  0  0  0  0  0  0  0  0  0
    5.2207    6.1977   -0.2435 H   0  0  0  0  0  0  0  0  0  0  0  0
    1.4070    5.0589    0.8090 H   0  0  0  0  0  0  0  0  0  0  0  0
  1 15  1  0  0  0  0
  1 17  1  0  0  0  0
  2 28  1  0  0  0  0
  2 29  1  0  0  0  0
  3 18  2  0  0  0  0
  4 27  2  0  0  0  0
  5 11  1  0  0  0  0
  5 13  1  0  0  0  0
  5 16  1  0  0  0  0
  6 14  1  0  0  0  0
  6 17  2  0  0  0  0
  7 17  1  0  0  0  0
  7 18  1  0  0  0  0
  7 45  1  0  0  0  0
  8 22  1  0  0  0  0
  8 27  1  0  0  0  0
  8 52  1  0  0  0  0
  9 26  1  0  0  0  0
  9 29  2  0  0  0  0
 10 34  2  0  0  0  0
 10 35  1  0  0  0  0
 11 12  1  0  0  0  0
 11 36  1  0  0  0  0
 11 37  1  0  0  0  0
 12 14  1  0  0  0  0
 12 38  1  0  0  0  0
 12 39  1  0  0  0  0
 13 15  1  0  0  0  0
 13 40  1  0  0  0  0
 13 41  1  0  0  0  0
 14 15  2  0  0  0  0
 16 42  1  0  0  0  0
 16 43  1  0  0  0  0
 16 44  1  0  0  0  0
 18 19  1  0  0  0  0
 19 21  1  0  0  0  0
 19 23  2  0  0  0  0
 20 21  2  0  0  0  0
 20 22  1  0  0  0  0
 20 24  1  0  0  0  0
 21 46  1  0  0  0  0
 22 47  1  0  0  0  0
 22 48  1  0  0  0  0
 23 25  1  0  0  0  0
 23 49  1  0  0  0  0
 24 25  2  0  0  0  0
 24 50  1  0  0  0  0
 25 51  1  0  0  0  0
 26 27  1  0  0  0  0
 26 28  2  0  0  0  0
 28 31  1  0  0  0  0
 29 30  1  0  0  0  0
 30 32  2  0  0  0  0
 30 33  1  0  0  0  0
 31 53  1  0  0  0  0
 31 54  1  0  0  0  0
 31 55  1  0  0  0  0
 32 34  1  0  0  0  0
 32 56  1  0  0  0  0
 33 35  2  0  0  0  0
 33 57  1  0  0  0  0
 34 58  1  0  0  0  0
 35 59  1  0  0  0  0
M  END
> <PUBCHEM_COMPOUND_CID>
56601543

> <PUBCHEM_CONFORMER_RMSD>
1.2

> <PUBCHEM_CONFORMER_DIVERSEORDER>
1
201
44
51
53
46
10
85
155
130
189
129
62
190
24
75
22
105
141
64
213
185
48
173
156
167
28
133
219
13
187
34
151
139
186
166
148
223
80
147
226
174
19
188
202
204
39
25
229
162
212
83
101
87
122
143
88
218
117
70
128
102
68
220
78
32
35
160
113
55
123
100
165
134
136
153
157
169
23
184
211
5
138
92
29
90
71
200
33
116
50
94
93
150
175
49
124
170
30
179
222
41
232
228
74
31
216
12
178
119
146
159
168
111
198
215
193
145
91
152
197
45
52
120
231
118
65
177
81
98
99
56
230
237
14
82
104
63
9
196
42
214
121
233
8
6
224
76
132
154
67
161
181
208
77
79
140
191
210
57
107
73
89
110
59
20
16
97
40
227
207
103
84
238
149
125
11
54
164
96
58
221
142
36
27
225
69
106
37
182
109
239
235
47
21
199
95
180
112
135
131
176
60
205
172
3
18
43
234
114
2
171
66
126
192
137
15
203
158
183
26
17
38
4
163
86
195
115
194
236
144
61
209
206
127
217
72
108
7

> <PUBCHEM_MMFF94_PARTIAL_CHARGES>
45
1 -0.08
10 -0.62
11 0.27
12 0.18
13 0.45
14 0.05
15 -0.14
16 0.27
17 0.44
18 0.54
19 0.09
2 -0.08
20 -0.14
21 -0.15
22 0.44
23 -0.15
24 -0.15
25 -0.15
26 0.14
27 0.72
28 -0.14
29 0.33
3 -0.57
30 0.05
31 0.18
32 -0.15
33 -0.15
34 0.16
35 0.16
4 -0.57
45 0.37
46 0.15
49 0.15
5 -0.81
50 0.15
51 0.15
52 0.37
56 0.15
57 0.15
58 0.15
59 0.15
6 -0.57
7 -0.49
8 -0.73
9 -0.57

> <PUBCHEM_EFFECTIVE_ROTOR_COUNT>
8.8

> <PUBCHEM_PHARMACOPHORE_FEATURES>
12
1 10 acceptor
1 3 acceptor
1 4 acceptor
1 5 cation
1 7 donor
1 8 donor
1 9 acceptor
5 1 6 14 15 17 rings
5 2 9 26 28 29 rings
6 10 30 32 33 34 35 rings
6 19 20 21 23 24 25 rings
6 5 11 12 13 14 15 rings

> <PUBCHEM_HEAVY_ATOM_COUNT>
35

> <PUBCHEM_ATOM_DEF_STEREO_COUNT>
0

> <PUBCHEM_ATOM_UDEF_STEREO_COUNT>
0

> <PUBCHEM_BOND_DEF_STEREO_COUNT>
0

> <PUBCHEM_BOND_UDEF_STEREO_COUNT>
0

> <PUBCHEM_ISOTOPIC_ATOM_COUNT>
0

> <PUBCHEM_COMPONENT_COUNT>
1

> <PUBCHEM_CACTVS_TAUTO_COUNT>
6

> <PUBCHEM_CONFORMER_ID>
035FABC700000001

> <PUBCHEM_MMFF94_ENERGY>
79.1151

> <PUBCHEM_FEATURE_SELFOVERLAP>
60.968

> <PUBCHEM_SHAPE_FINGERPRINT>
10439779 11 18266446789386441754
10462674 296 17620759379952968146
10556698 54 18268726059404614870
10673678 19 18411702046012932619
10864689 126 18410301324212887060
11273773 38 18338797814592954482
11479125 193 18337115686789234201
11505856 67 18198052789219810783
11621639 336 17908143179643910608
11761917 142 17691959784608884768
11828042 163 18411427224552675276
11828042 53 17686913017832841460
13944108 23 18192995915550528436
14068700 686 17262153043773541520
14117953 113 18268146449204979870
14747282 540 18117000988128710140
14790565 3 18410574028428814899
15001296 14 18335132124604336361
15276724 80 17981333592217415103
15320291 9 17615118219150828620
15320295 198 17972316206038519101
15320467 1 18338798892609140264
15400415 2 18338515364986689465
155225 5 17545319043987809280
15773879 134 18411974772410280837
15979999 66 17694508039786539550
16067689 134 18268719303321597005
19053607 189 18123743421174859696
19302320 297 18337387136974840867
21223535 225 18341611581530072774
23729417 116 16757194061654929719
241686 156 18335425685677728957
3103668 31 16467843260940776639
4487111 67 17834956751746159064
4756261 7 17547048520044461083
508180 173 18411710902578180914
5109719 28 18338809931513335163
53794403 172 18410571773649664115
5951187 136 18343027674754196926
6036956 94 17397265404934128173
6176135 31 18337096947536068000

> <PUBCHEM_SHAPE_MULTIPOLES>
686.36
19.57
9.63
0.99
26.93
2.65
-0.08
23.07
4.44
-6.37
-0.37
-0.92
-0.62
-0.44

> <PUBCHEM_SHAPE_SELFOVERLAP>
1471.652

> <PUBCHEM_SHAPE_VOLUME>
383

> <PUBCHEM_COORDINATE_TYPE>
2
5
10

$$$$
56601941
  -OEChem-05102415103D

 55 59  0     1  0  0  0  0  0999 V2000
   -3.3012    1.4169    0.5808 S   0  0  0  0  0  0  0  0  0  0  0  0
   -3.8592   -3.0168   -0.8273 O   0  0  0  0  0  0  0  0  0  0  0  0
    4.0008   -3.1849    0.1592 O   0  0  0  0  0  0  0  0  0  0  0  0
   -6.6650    3.5716   -0.1512 N   0  0  2  0  0  0  0  0  0  0  0  0
   -5.0215   -0.2761   -0.3729 N   0  0  0  0  0  0  0  0  0  0  0  0
   -2.7858   -1.0936    0.0130 N   0  0  0  0  0  0  0  0  0  0  0  0
    5.5230    0.6785   -0.4881 N   0  0  0  0  0  0  0  0  0  0  0  0
    2.3333   -2.0704    1.3242 N   0  0  0  0  0  0  0  0  0  0  0  0
    3.6546    0.3541    0.6961 N   0  0  0  0  0  0  0  0  0  0  0  0
    5.5380    5.9742   -0.0080 N   0  0  0  0  0  0  0  0  0  0  0  0
   -7.6201    2.4578    0.0457 C   0  0  0  0  0  0  0  0  0  0  0  0
   -7.0891    1.1383   -0.5606 C   0  0  0  0  0  0  0  0  0  0  0  0
   -5.3894    3.3357    0.5684 C   0  0  0  0  0  0  0  0  0  0  0  0
   -5.6603    0.9317   -0.2039 C   0  0  0  0  0  0  0  0  0  0  0  0
   -4.8854    1.9583    0.2926 C   0  0  0  0  0  0  0  0  0  0  0  0
   -7.2561    4.8411    0.2698 C   0  0  0  0  0  0  0  0  0  0  0  0
   -3.7690   -0.1398    0.0114 C   0  0  0  0  0  0  0  0  0  0  0  0
   -2.8631   -2.4494   -0.3919 C   0  0  0  0  0  0  0  0  0  0  0  0
   -1.6048   -3.2352   -0.2969 C   0  0  0  0  0  0  0  0  0  0  0  0
    0.5506   -3.6188    0.7252 C   0  0  0  0  0  0  0  0  0  0  0  0
    1.5930   -3.2407    1.7224 C   0  0  0  0  0  0  0  0  0  0  0  0
   -0.6304   -2.8818    0.6366 C   0  0  0  0  0  0  0  0  0  0  0  0
   -1.3981   -4.3256   -1.1421 C   0  0  0  0  0  0  0  0  0  0  0  0
    4.1529   -0.8471    0.2594 C   0  0  0  0  0  0  0  0  0  0  0  0
    4.4903    1.2635    0.2375 C   0  0  0  0  0  0  0  0  0  0  0  0
    0.7572   -4.7092   -0.1198 C   0  0  0  0  0  0  0  0  0  0  0  0
    5.3044   -0.6749   -0.4720 C   0  0  0  0  0  0  0  0  0  0  0  0
   -0.2170   -5.0624   -1.0537 C   0  0  0  0  0  0  0  0  0  0  0  0
    3.4928   -2.1426    0.5643 C   0  0  0  0  0  0  0  0  0  0  0  0
    6.5479    1.4028   -1.0874 C   0  0  0  0  0  0  0  0  0  0  0  0
    4.5058    2.6851    0.3598 C   0  0  0  0  0  0  0  0  0  0  0  0
    5.4946    3.4006   -0.2178 C   0  0  0  0  0  0  0  0  0  0  0  0
    6.5574    2.7409   -0.9703 C   0  0  0  0  0  0  0  0  0  0  0  0
    5.5186    4.8182   -0.1022 C   0  0  0  0  0  0  0  0  0  0  0  0
   -7.8217    2.3185    1.1167 H   0  0  0  0  0  0  0  0  0  0  0  0
   -8.5779    2.6884   -0.4369 H   0  0  0  0  0  0  0  0  0  0  0  0
   -7.1760    1.1753   -1.6533 H   0  0  0  0  0  0  0  0  0  0  0  0
   -7.6960    0.2984   -0.2056 H   0  0  0  0  0  0  0  0  0  0  0  0
   -5.5288    3.4494    1.6515 H   0  0  0  0  0  0  0  0  0  0  0  0
   -4.6502    4.0757    0.2396 H   0  0  0  0  0  0  0  0  0  0  0  0
   -8.1596    5.0558   -0.3115 H   0  0  0  0  0  0  0  0  0  0  0  0
   -6.5612    5.6682    0.0869 H   0  0  0  0  0  0  0  0  0  0  0  0
   -7.5218    4.8412    1.3330 H   0  0  0  0  0  0  0  0  0  0  0  0
   -1.8878   -0.7314    0.3191 H   0  0  0  0  0  0  0  0  0  0  0  0
    1.1256   -3.0215    2.6895 H   0  0  0  0  0  0  0  0  0  0  0  0
    2.2922   -4.0680    1.8932 H   0  0  0  0  0  0  0  0  0  0  0  0
   -0.7759   -2.0594    1.3313 H   0  0  0  0  0  0  0  0  0  0  0  0
   -2.1417   -4.6144   -1.8801 H   0  0  0  0  0  0  0  0  0  0  0  0
    1.6732   -5.2914   -0.0637 H   0  0  0  0  0  0  0  0  0  0  0  0
    1.9828   -1.1604    1.6097 H   0  0  0  0  0  0  0  0  0  0  0  0
    5.9674   -1.3710   -0.9682 H   0  0  0  0  0  0  0  0  0  0  0  0
   -0.0551   -5.9103   -1.7130 H   0  0  0  0  0  0  0  0  0  0  0  0
    7.3074    0.8551   -1.6320 H   0  0  0  0  0  0  0  0  0  0  0  0
    3.7093    3.1626    0.9224 H   0  0  0  0  0  0  0  0  0  0  0  0
    7.3423    3.3345   -1.4260 H   0  0  0  0  0  0  0  0  0  0  0  0
  1 15  1  0  0  0  0
  1 17  1  0  0  0  0
  2 18  2  0  0  0  0
  3 29  2  0  0  0  0
  4 11  1  0  0  0  0
  4 13  1  0  0  0  0
  4 16  1  0  0  0  0
  5 14  1  0  0  0  0
  5 17  2  0  0  0  0
  6 17  1  0  0  0  0
  6 18  1  0  0  0  0
  6 44  1  0  0  0  0
  7 25  1  0  0  0  0
  7 27  1  0  0  0  0
  7 30  1  0  0  0  0
  8 21  1  0  0  0  0
  8 29  1  0  0  0  0
  8 50  1  0  0  0  0
  9 24  1  0  0  0  0
  9 25  2  0  0  0  0
 10 34  3  0  0  0  0
 11 12  1  0  0  0  0
 11 35  1  0  0  0  0
 11 36  1  0  0  0  0
 12 14  1  0  0  0  0
 12 37  1  0  0  0  0
 12 38  1  0  0  0  0
 13 15  1  0  0  0  0
 13 39  1  0  0  0  0
 13 40  1  0  0  0  0
 14 15  2  0  0  0  0
 16 41  1  0  0  0  0
 16 42  1  0  0  0  0
 16 43  1  0  0  0  0
 18 19  1  0  0  0  0
 19 22  1  0  0  0  0
 19 23  2  0  0  0  0
 20 21  1  0  0  0  0
 20 22  2  0  0  0  0
 20 26  1  0  0  0  0
 21 45  1  0  0  0  0
 21 46  1  0  0  0  0
 22 47  1  0  0  0  0
 23 28  1  0  0  0  0
 23 48  1  0  0  0  0
 24 27  2  0  0  0  0
 24 29  1  0  0  0  0
 25 31  1  0  0  0  0
 26 28  2  0  0  0  0
 26 49  1  0  0  0  0
 27 51  1  0  0  0  0
 28 52  1  0  0  0  0
 30 33  2  0  0  0  0
 30 53  1  0  0  0  0
 31 32  2  0  0  0  0
 31 54  1  0  0  0  0
 32 33  1  0  0  0  0
 32 34  1  0  0  0  0
 33 55  1  0  0  0  0
M  END
> <PUBCHEM_COMPOUND_CID>
56601941

> <PUBCHEM_CONFORMER_RMSD>
1

> <PUBCHEM_CONFORMER_DIVERSEORDER>
1
149
65
7
272
85
114
236
17
174
176
117
45
161
185
127
62
194
15
108
324
242
55
50
178
269
270
220
129
107
130
206
38
323
283
111
25
98
8
268
157
210
27
182
123
192
44
69
121
327
103
79
60
10
225
254
88
183
299
152
279
32
169
189
317
313
295
89
240
80
24
237
297
164
47
49
204
125
229
115
155
54
166
280
258
39
92
77
238
37
144
147
292
278
187
177
245
75
16
76
23
150
281
201
91
247
59
265
120
133
262
230
212
241
104
197
94
95
318
58
138
303
203
232
66
48
294
9
179
301
287
14
132
315
159
167
173
99
70
288
300
248
190
285
154
218
328
214
259
163
113
302
135
207
71
5
186
29
267
102
22
253
165
19
40
311
249
284
64
86
228
136
78
156
106
298
124
314
219
329
252
160
216
36
224
146
209
233
21
42
168
274
63
193
162
141
126
118
43
271
188
234
316
244
213
227
276
200
116
61
142
309
296
198
215
35
101
290
83
26
53
289
139
319
180
3
153
170
52
148
30
67
308
310
122
286
151
90
184
73
31
57
277
81
119
307
145
33
18
68
291
304
261
264
12
325
202
255
181
56
217
226
20
293
112
51
199
131
257
321
195
158
260
74
231
256
243
306
11
143
196
93
134
312
275
246
28
221
211
110
222
175
305
250
46
191
6
109
239
84
128
140
251
4
13
322
105
282
266
97
137
273
72
263
2
205
41
171
82
34
96
208
235
100
87
223
320
172
326

> <PUBCHEM_MMFF94_PARTIAL_CHARGES>
44
1 -0.08
10 -0.56
11 0.27
12 0.18
13 0.45
14 0.05
15 -0.14
16 0.27
17 0.44
18 0.54
19 0.09
2 -0.57
20 -0.14
21 0.44
22 -0.15
23 -0.15
24 0.14
25 0.14
26 -0.15
27 -0.3
28 -0.15
29 0.72
3 -0.57
30 -0.18
31 -0.11
32 0.06
33 -0.15
34 0.49
4 -0.81
44 0.37
47 0.15
48 0.15
49 0.15
5 -0.57
50 0.37
51 0.15
52 0.15
53 0.15
54 0.15
55 0.15
6 -0.49
7 0.33
8 -0.73
9 -0.57

> <PUBCHEM_EFFECTIVE_ROTOR_COUNT>
7.8

> <PUBCHEM_PHARMACOPHORE_FEATURES>
12
1 10 acceptor
1 2 acceptor
1 3 acceptor
1 4 cation
1 6 donor
1 8 donor
3 7 9 25 cation
5 1 5 14 15 17 rings
5 7 9 24 25 27 rings
6 19 20 22 23 26 28 rings
6 4 11 12 13 14 15 rings
6 7 25 30 31 32 33 rings

> <PUBCHEM_HEAVY_ATOM_COUNT>
34

> <PUBCHEM_ATOM_DEF_STEREO_COUNT>
0

> <PUBCHEM_ATOM_UDEF_STEREO_COUNT>
0

> <PUBCHEM_BOND_DEF_STEREO_COUNT>
0

> <PUBCHEM_BOND_UDEF_STEREO_COUNT>
0

> <PUBCHEM_ISOTOPIC_ATOM_COUNT>
0

> <PUBCHEM_COMPONENT_COUNT>
1

> <PUBCHEM_CACTVS_TAUTO_COUNT>
6

> <PUBCHEM_CONFORMER_ID>
035FAD5500000001

> <PUBCHEM_MMFF94_ENERGY>
69.0594

> <PUBCHEM_FEATURE_SELFOVERLAP>
61.082

> <PUBCHEM_SHAPE_FINGERPRINT>
10556698 54 17845073233505201513
10673678 19 18340208479938778595
10864689 126 18413110576364072648
10917259 69 18409731790665457412
11146346 142 18198600255990040845
11273773 38 18339921498254422490
11374522 174 18261970573468841549
11476731 99 18126002913385949440
11477941 20 17120008185399086622
11479125 193 18409735088192578257
11505856 67 18268983345200412807
11761917 142 17908414011819140008
11828042 163 18339932520396044564
11828042 200 18124863811224328263
11828042 53 17976268147404029468
12061779 8 16952557903280636852
13944108 23 18124032330037527392
14251764 75 18408885135307037443
14790565 3 18411136926678942443
15001296 14 18335416842254936275
15142526 21 18186519878306023323
15198563 99 17911513517701953695
15320295 198 17685494252631585037
15400415 2 18410855490199110568
155225 5 17834394897484015256
155225 6 18337955589134639697
15979999 66 17478898181888002286
16728433 281 17900267696088966124
18339144 43 17412206265324524809
19053607 189 18340194302346660968
19302320 297 18192991517515048090
20691028 202 18410851070671591788
21792965 106 17833831952449034720
23516275 100 16901574832463110049
23576562 1 18128819629868426039
245318 6 18260843574292437839
3388396 114 16897931059823303086
397830 11 18118981196413094963
42767 28 18201728383471052656
44280116 191 18265624191027076460
44575985 47 18263902433670658808
5109719 28 18339935814219086161
5265222 85 18340769346965066513
53794403 172 18267585706759299071
5951187 136 18270687467647259830
59520647 147 18408611374135237105
6036956 94 17685780520216648452
6058803 2 18264463205158561402
6176135 31 18337099103836360936
6700243 42 13756918427730746809
7288768 16 17749387130508191170
7970288 3 9547770843860419959

> <PUBCHEM_SHAPE_MULTIPOLES>
656.95
21.76
9.3
1.01
12.51
1.11
-0.09
38.22
3.05
-3.09
0.67
-0.5
-0.71
-2.54

> <PUBCHEM_SHAPE_SELFOVERLAP>
1427.559

> <PUBCHEM_SHAPE_VOLUME>
360.4

> <PUBCHEM_COORDINATE_TYPE>
2
5
10

$$$$
84973049
  -OEChem-05102415103D

 57 61  0     1  0  0  0  0  0999 V2000
   -3.1554    1.3660    0.5378 S   0  0  0  0  0  0  0  0  0  0  0  0
   -3.7936   -3.1045   -0.7106 O   0  0  0  0  0  0  0  0  0  0  0  0
    4.0890   -3.3206    0.0627 O   0  0  0  0  0  0  0  0  0  0  0  0
   -6.5184    3.5303   -0.1698 N   0  0  2  0  0  0  0  0  0  0  0  0
   -4.9173   -0.3390   -0.3128 N   0  0  0  0  0  0  0  0  0  0  0  0
   -2.6793   -1.1664    0.0372 N   0  0  0  0  0  0  0  0  0  0  0  0
    2.4652   -2.1526    1.2369 N   0  0  0  0  0  0  0  0  0  0  0  0
    5.3904   -0.8825   -0.6817 N   0  0  0  0  0  0  0  0  0  0  0  0
    5.8043    0.3813   -0.8761 N   0  0  0  0  0  0  0  0  0  0  0  0
    5.1701    5.3274   -0.0941 N   0  0  0  0  0  0  0  0  0  0  0  0
   -7.4779    2.4330    0.0893 C   0  0  0  0  0  0  0  0  0  0  0  0
   -6.9762    1.0896   -0.4887 C   0  0  0  0  0  0  0  0  0  0  0  0
   -5.2254    3.3046    0.5214 C   0  0  0  0  0  0  0  0  0  0  0  0
   -5.5400    0.8800   -0.1652 C   0  0  0  0  0  0  0  0  0  0  0  0
   -4.7420    1.9140    0.2763 C   0  0  0  0  0  0  0  0  0  0  0  0
   -7.0856    4.8186    0.2262 C   0  0  0  0  0  0  0  0  0  0  0  0
   -3.6533   -0.2032    0.0321 C   0  0  0  0  0  0  0  0  0  0  0  0
   -2.7805   -2.5336   -0.3214 C   0  0  0  0  0  0  0  0  0  0  0  0
   -1.5274   -3.3287   -0.2361 C   0  0  0  0  0  0  0  0  0  0  0  0
    0.6522   -3.7012    0.7378 C   0  0  0  0  0  0  0  0  0  0  0  0
   -0.5240   -2.9555    0.6582 C   0  0  0  0  0  0  0  0  0  0  0  0
    1.7256   -3.3021    1.6931 C   0  0  0  0  0  0  0  0  0  0  0  0
   -1.3545   -4.4475   -1.0510 C   0  0  0  0  0  0  0  0  0  0  0  0
    0.8250   -4.8201   -0.0770 C   0  0  0  0  0  0  0  0  0  0  0  0
   -0.1782   -5.1931   -0.9717 C   0  0  0  0  0  0  0  0  0  0  0  0
    4.2655   -0.9825    0.0833 C   0  0  0  0  0  0  0  0  0  0  0  0
    3.6023   -2.2608    0.4480 C   0  0  0  0  0  0  0  0  0  0  0  0
    4.9020    1.1024   -0.2053 C   0  0  0  0  0  0  0  0  0  0  0  0
    3.9198    0.3054    0.4126 C   0  0  0  0  0  0  0  0  0  0  0  0
    4.9931    2.5386   -0.1675 C   0  0  0  0  0  0  0  0  0  0  0  0
    3.8408    3.3084   -0.0538 C   0  0  0  0  0  0  0  0  0  0  0  0
    6.2339    3.1616   -0.2445 C   0  0  0  0  0  0  0  0  0  0  0  0
    3.9819    4.6864   -0.0216 C   0  0  0  0  0  0  0  0  0  0  0  0
    6.2680    4.5462   -0.2039 C   0  0  0  0  0  0  0  0  0  0  0  0
   -7.6507    2.3301    1.1694 H   0  0  0  0  0  0  0  0  0  0  0  0
   -8.4465    2.6579   -0.3738 H   0  0  0  0  0  0  0  0  0  0  0  0
   -7.0934    1.0925   -1.5791 H   0  0  0  0  0  0  0  0  0  0  0  0
   -7.5807    0.2677   -0.0901 H   0  0  0  0  0  0  0  0  0  0  0  0
   -5.3333    3.4543    1.6037 H   0  0  0  0  0  0  0  0  0  0  0  0
   -4.4888    4.0262    0.1486 H   0  0  0  0  0  0  0  0  0  0  0  0
   -8.0030    5.0237   -0.3364 H   0  0  0  0  0  0  0  0  0  0  0  0
   -6.3885    5.6323   -0.0024 H   0  0  0  0  0  0  0  0  0  0  0  0
   -7.3215    4.8554    1.2958 H   0  0  0  0  0  0  0  0  0  0  0  0
   -1.7698   -0.8037    0.3065 H   0  0  0  0  0  0  0  0  0  0  0  0
   -0.6424   -2.1098    1.3298 H   0  0  0  0  0  0  0  0  0  0  0  0
    1.2875   -3.0478    2.6653 H   0  0  0  0  0  0  0  0  0  0  0  0
    2.4217   -4.1305    1.8708 H   0  0  0  0  0  0  0  0  0  0  0  0
   -2.1211   -4.7523   -1.7585 H   0  0  0  0  0  0  0  0  0  0  0  0
    1.7367   -5.4095   -0.0275 H   0  0  0  0  0  0  0  0  0  0  0  0
   -0.0427   -6.0632   -1.6075 H   0  0  0  0  0  0  0  0  0  0  0  0
    2.1167   -1.2394    1.5089 H   0  0  0  0  0  0  0  0  0  0  0  0
    3.0826    0.6248    1.0170 H   0  0  0  0  0  0  0  0  0  0  0  0
    5.9258   -1.6317   -1.1026 H   0  0  0  0  0  0  0  0  0  0  0  0
    2.8483    2.8734    0.0000 H   0  0  0  0  0  0  0  0  0  0  0  0
    7.1633    2.6074   -0.3262 H   0  0  0  0  0  0  0  0  0  0  0  0
    3.1140    5.3320    0.0636 H   0  0  0  0  0  0  0  0  0  0  0  0
    7.2108    5.0805   -0.2585 H   0  0  0  0  0  0  0  0  0  0  0  0
  1 15  1  0  0  0  0
  1 17  1  0  0  0  0
  2 18  2  0  0  0  0
  3 27  2  0  0  0  0
  4 11  1  0  0  0  0
  4 13  1  0  0  0  0
  4 16  1  0  0  0  0
  5 14  1  0  0  0  0
  5 17  2  0  0  0  0
  6 17  1  0  0  0  0
  6 18  1  0  0  0  0
  6 44  1  0  0  0  0
  7 22  1  0  0  0  0
  7 27  1  0  0  0  0
  7 51  1  0  0  0  0
  8  9  1  0  0  0  0
  8 26  1  0  0  0  0
  8 53  1  0  0  0  0
  9 28  2  0  0  0  0
 10 33  2  0  0  0  0
 10 34  1  0  0  0  0
 11 12  1  0  0  0  0
 11 35  1  0  0  0  0
 11 36  1  0  0  0  0
 12 14  1  0  0  0  0
 12 37  1  0  0  0  0
 12 38  1  0  0  0  0
 13 15  1  0  0  0  0
 13 39  1  0  0  0  0
 13 40  1  0  0  0  0
 14 15  2  0  0  0  0
 16 41  1  0  0  0  0
 16 42  1  0  0  0  0
 16 43  1  0  0  0  0
 18 19  1  0  0  0  0
 19 21  1  0  0  0  0
 19 23  2  0  0  0  0
 20 21  2  0  0  0  0
 20 22  1  0  0  0  0
 20 24  1  0  0  0  0
 21 45  1  0  0  0  0
 22 46  1  0  0  0  0
 22 47  1  0  0  0  0
 23 25  1  0  0  0  0
 23 48  1  0  0  0  0
 24 25  2  0  0  0  0
 24 49  1  0  0  0  0
 25 50  1  0  0  0  0
 26 27  1  0  0  0  0
 26 29  2  0  0  0  0
 28 29  1  0  0  0  0
 28 30  1  0  0  0  0
 29 52  1  0  0  0  0
 30 31  2  0  0  0  0
 30 32  1  0  0  0  0
 31 33  1  0  0  0  0
 31 54  1  0  0  0  0
 32 34  2  0  0  0  0
 32 55  1  0  0  0  0
 33 56  1  0  0  0  0
 34 57  1  0  0  0  0
M  END
> <PUBCHEM_COMPOUND_CID>
84973049

> <PUBCHEM_CONFORMER_RMSD>
1.2

> <PUBCHEM_CONFORMER_DIVERSEORDER>
1
94
91
7
152
42
125
136
68
43
29
76
26
21
34
137
79
66
104
131
138
36
83
64
59
140
13
111
48
58
100
46
107
52
130
56
23
90
32
74
103
143
49
86
142
69
149
67
45
54
18
62
38
88
81
14
33
60
53
41
73
84
146
150
124
147
121
17
65
108
96
77
110
89
106
154
102
109
120
128
57
72
98
144
63
153
101
10
39
70
37
122
3
8
97
82
115
12
28
15
78
35
123
93
31
55
95
132
30
27
134
40
113
75
51
16
139
19
99
11
71
118
114
116
80
127
87
61
105
126
133
50
44
135
119
5
85
25
141
47
148
6
4
24
145
129
22
92
117
151
9
112
20
2

> <PUBCHEM_MMFF94_PARTIAL_CHARGES>
46
1 -0.08
10 -0.62
11 0.27
12 0.18
13 0.45
14 0.05
15 -0.14
16 0.27
17 0.44
18 0.54
19 0.09
2 -0.57
20 -0.14
21 -0.15
22 0.44
23 -0.15
24 -0.15
25 -0.15
26 -0.24
27 0.71
28 0.23
29 -0.15
3 -0.57
30 0.05
31 -0.15
32 -0.15
33 0.16
34 0.16
4 -0.81
44 0.37
45 0.15
48 0.15
49 0.15
5 -0.57
50 0.15
51 0.37
52 0.15
53 0.27
54 0.15
55 0.15
56 0.15
57 0.15
6 -0.49
7 -0.73
8 0.3
9 -0.71

> <PUBCHEM_EFFECTIVE_ROTOR_COUNT>
8.8

> <PUBCHEM_PHARMACOPHORE_FEATURES>
13
1 10 acceptor
1 2 acceptor
1 3 acceptor
1 4 cation
1 6 donor
1 7 donor
1 8 donor
1 9 acceptor
5 1 5 14 15 17 rings
5 8 9 26 28 29 rings
6 10 30 31 32 33 34 rings
6 19 20 21 23 24 25 rings
6 4 11 12 13 14 15 rings

> <PUBCHEM_HEAVY_ATOM_COUNT>
34

> <PUBCHEM_ATOM_DEF_STEREO_COUNT>
0

> <PUBCHEM_ATOM_UDEF_STEREO_COUNT>
0

> <PUBCHEM_BOND_DEF_STEREO_COUNT>
0

> <PUBCHEM_BOND_UDEF_STEREO_COUNT>
0

> <PUBCHEM_ISOTOPIC_ATOM_COUNT>
0

> <PUBCHEM_COMPONENT_COUNT>
1

> <PUBCHEM_CACTVS_TAUTO_COUNT>
27

> <PUBCHEM_CONFORMER_ID>
051095F900000001

> <PUBCHEM_MMFF94_ENERGY>
74.953

> <PUBCHEM_FEATURE_SELFOVERLAP>
66.044

> <PUBCHEM_SHAPE_FINGERPRINT>
10462674 296 17548984356203272512
10673678 19 18339645534253937835
10864689 126 18410303514714851364
10917259 69 18337392738836138148
11273773 38 18339641114215255227
11374522 174 18188789295769523756
11477941 20 17120288556548161686
11479125 193 18409455816518389585
11505856 67 18269828886763948055
11761917 142 17908695482490249400
11828042 163 18411990144499126900
11828042 53 17975706305531097644
12061779 8 16880218842855971844
13944108 23 18123750850850303961
14251764 75 18409729560406149899
14429114 114 18338232798839326538
14747282 540 18117848690308598156
14790565 3 18410855468934978371
15001296 14 18335416846518261547
15198563 99 17983290727684916127
15320295 198 17756707434640198109
15320467 1 18194683661784090968
15400415 2 18410574023844034988
155225 5 17834113431091964384
155225 6 18410294671039467985
15773879 134 18339636755578272709
15979999 66 17478898181793082782
19053607 189 18340475781649948440
19302320 297 18265330607999151010
20580484 21 17978511936786786613
20691028 202 18411415124505747109
21792965 106 17905889537912735352
23576562 1 18056762031546106303
23729417 116 16468964767813819103
245318 6 18187943754315991551
3388396 114 17549527952765702166
397830 11 18046643218304351283
44280116 191 18265625286180355548
4487111 67 18051693540543948648
5109719 28 18339373963750964321
5265222 85 18340768238910937969
53794403 172 18339360739135703199
54728670 133 11111473775277169191
57366028 249 17975688387349389069
5951187 136 18342746169839400214
6036956 94 17685780520089995964
6176135 31 18337099108141864744
636783 164 17911492584938662968
99344 41 18410290320058801296

> <PUBCHEM_SHAPE_MULTIPOLES>
656.95
20.38
9.91
0.92
13.39
0.15
-0.14
35.19
1.91
-4.4
0.68
-0.21
-0.77
-2.13

> <PUBCHEM_SHAPE_SELFOVERLAP>
1425.72

> <PUBCHEM_SHAPE_VOLUME>
361.8

> <PUBCHEM_COORDINATE_TYPE>
2
5
10

$$$$
84973050
  -OEChem-05102415103D

 59 63  0     1  0  0  0  0  0999 V2000
   -3.3187    1.3368    0.5051 S   0  0  0  0  0  0  0  0  0  0  0  0
    3.4595    0.5310    0.6612 S   0  0  0  0  0  0  0  0  0  0  0  0
   -3.9141   -3.1576   -0.6766 O   0  0  0  0  0  0  0  0  0  0  0  0
    3.9647   -3.2998    0.1506 O   0  0  0  0  0  0  0  0  0  0  0  0
   -6.6935    3.4633   -0.2582 N   0  0  2  0  0  0  0  0  0  0  0  0
   -5.0617   -0.3951   -0.3297 N   0  0  0  0  0  0  0  0  0  0  0  0
   -2.8198   -1.1994    0.0476 N   0  0  0  0  0  0  0  0  0  0  0  0
    2.3243   -2.1263    1.2958 N   0  0  0  0  0  0  0  0  0  0  0  0
    5.6004    0.6028   -0.7858 N   0  0  0  0  0  0  0  0  0  0  0  0
    4.8276    5.5885    0.0092 N   0  0  0  0  0  0  0  0  0  0  0  0
   -7.6462    2.3628    0.0120 C   0  0  0  0  0  0  0  0  0  0  0  0
   -7.1304    1.0144   -0.5414 C   0  0  0  0  0  0  0  0  0  0  0  0
   -5.4034    3.2586    0.4448 C   0  0  0  0  0  0  0  0  0  0  0  0
   -5.6948    0.8212   -0.2054 C   0  0  0  0  0  0  0  0  0  0  0  0
   -4.9077    1.8682    0.2248 C   0  0  0  0  0  0  0  0  0  0  0  0
   -7.2733    4.7531    0.1138 C   0  0  0  0  0  0  0  0  0  0  0  0
   -3.8011   -0.2440    0.0210 C   0  0  0  0  0  0  0  0  0  0  0  0
   -2.9080   -2.5728   -0.2900 C   0  0  0  0  0  0  0  0  0  0  0  0
   -1.6494   -3.3566   -0.1841 C   0  0  0  0  0  0  0  0  0  0  0  0
    0.5266   -3.6967    0.8096 C   0  0  0  0  0  0  0  0  0  0  0  0
   -0.6547   -2.9615    0.7106 C   0  0  0  0  0  0  0  0  0  0  0  0
    1.5906   -3.2741    1.7653 C   0  0  0  0  0  0  0  0  0  0  0  0
   -1.4625   -4.4867   -0.9801 C   0  0  0  0  0  0  0  0  0  0  0  0
    0.7134   -4.8269    0.0136 C   0  0  0  0  0  0  0  0  0  0  0  0
   -0.2811   -5.2218   -0.8815 C   0  0  0  0  0  0  0  0  0  0  0  0
    4.1230   -0.9604    0.1353 C   0  0  0  0  0  0  0  0  0  0  0  0
    3.4673   -2.2379    0.5160 C   0  0  0  0  0  0  0  0  0  0  0  0
    5.2532   -0.7236   -0.6186 C   0  0  0  0  0  0  0  0  0  0  0  0
    4.7254    1.3538   -0.1545 C   0  0  0  0  0  0  0  0  0  0  0  0
    4.7600    2.7962   -0.0994 C   0  0  0  0  0  0  0  0  0  0  0  0
    6.1095   -1.7496   -1.2495 C   0  0  0  0  0  0  0  0  0  0  0  0
    3.6102    3.5104    0.2186 C   0  0  0  0  0  0  0  0  0  0  0  0
    5.9437    3.4766   -0.3632 C   0  0  0  0  0  0  0  0  0  0  0  0
    3.6958    4.8926    0.2594 C   0  0  0  0  0  0  0  0  0  0  0  0
    5.9250    4.8604   -0.2963 C   0  0  0  0  0  0  0  0  0  0  0  0
   -8.6135    2.5727   -0.4607 H   0  0  0  0  0  0  0  0  0  0  0  0
   -7.8253    2.2755    1.0925 H   0  0  0  0  0  0  0  0  0  0  0  0
   -7.2404    0.9992   -1.6325 H   0  0  0  0  0  0  0  0  0  0  0  0
   -7.7311    0.1941   -0.1338 H   0  0  0  0  0  0  0  0  0  0  0  0
   -5.5195    3.4245    1.5238 H   0  0  0  0  0  0  0  0  0  0  0  0
   -4.6700    3.9800    0.0654 H   0  0  0  0  0  0  0  0  0  0  0  0
   -8.1886    4.9422   -0.4579 H   0  0  0  0  0  0  0  0  0  0  0  0
   -6.5810    5.5686   -0.1232 H   0  0  0  0  0  0  0  0  0  0  0  0
   -7.5164    4.8049    1.1811 H   0  0  0  0  0  0  0  0  0  0  0  0
   -1.9149   -0.8254    0.3170 H   0  0  0  0  0  0  0  0  0  0  0  0
   -0.7840   -2.1063    1.3679 H   0  0  0  0  0  0  0  0  0  0  0  0
    1.1442   -3.0075    2.7304 H   0  0  0  0  0  0  0  0  0  0  0  0
    2.2919   -4.0941    1.9607 H   0  0  0  0  0  0  0  0  0  0  0  0
   -2.2221   -4.8086   -1.6876 H   0  0  0  0  0  0  0  0  0  0  0  0
    1.6293   -5.4082    0.0783 H   0  0  0  0  0  0  0  0  0  0  0  0
   -0.1347   -6.1006   -1.5026 H   0  0  0  0  0  0  0  0  0  0  0  0
    1.9798   -1.2036    1.5454 H   0  0  0  0  0  0  0  0  0  0  0  0
    6.5396   -2.4147   -0.4941 H   0  0  0  0  0  0  0  0  0  0  0  0
    6.9382   -1.2878   -1.7963 H   0  0  0  0  0  0  0  0  0  0  0  0
    5.5355   -2.3505   -1.9619 H   0  0  0  0  0  0  0  0  0  0  0  0
    2.6422    3.0635    0.4133 H   0  0  0  0  0  0  0  0  0  0  0  0
    6.8657    2.9614   -0.6125 H   0  0  0  0  0  0  0  0  0  0  0  0
    2.8262    5.4969    0.4964 H   0  0  0  0  0  0  0  0  0  0  0  0
    6.8222    5.4383   -0.4927 H   0  0  0  0  0  0  0  0  0  0  0  0
  1 15  1  0  0  0  0
  1 17  1  0  0  0  0
  2 26  1  0  0  0  0
  2 29  1  0  0  0  0
  3 18  2  0  0  0  0
  4 27  2  0  0  0  0
  5 11  1  0  0  0  0
  5 13  1  0  0  0  0
  5 16  1  0  0  0  0
  6 14  1  0  0  0  0
  6 17  2  0  0  0  0
  7 17  1  0  0  0  0
  7 18  1  0  0  0  0
  7 45  1  0  0  0  0
  8 22  1  0  0  0  0
  8 27  1  0  0  0  0
  8 52  1  0  0  0  0
  9 28  1  0  0  0  0
  9 29  2  0  0  0  0
 10 34  2  0  0  0  0
 10 35  1  0  0  0  0
 11 12  1  0  0  0  0
 11 36  1  0  0  0  0
 11 37  1  0  0  0  0
 12 14  1  0  0  0  0
 12 38  1  0  0  0  0
 12 39  1  0  0  0  0
 13 15  1  0  0  0  0
 13 40  1  0  0  0  0
 13 41  1  0  0  0  0
 14 15  2  0  0  0  0
 16 42  1  0  0  0  0
 16 43  1  0  0  0  0
 16 44  1  0  0  0  0
 18 19  1  0  0  0  0
 19 21  1  0  0  0  0
 19 23  2  0  0  0  0
 20 21  2  0  0  0  0
 20 22  1  0  0  0  0
 20 24  1  0  0  0  0
 21 46  1  0  0  0  0
 22 47  1  0  0  0  0
 22 48  1  0  0  0  0
 23 25  1  0  0  0  0
 23 49  1  0  0  0  0
 24 25  2  0  0  0  0
 24 50  1  0  0  0  0
 25 51  1  0  0  0  0
 26 27  1  0  0  0  0
 26 28  2  0  0  0  0
 28 31  1  0  0  0  0
 29 30  1  0  0  0  0
 30 32  2  0  0  0  0
 30 33  1  0  0  0  0
 31 53  1  0  0  0  0
 31 54  1  0  0  0  0
 31 55  1  0  0  0  0
 32 34  1  0  0  0  0
 32 56  1  0  0  0  0
 33 35  2  0  0  0  0
 33 57  1  0  0  0  0
 34 58  1  0  0  0  0
 35 59  1  0  0  0  0
M  END
> <PUBCHEM_COMPOUND_CID>
84973050

> <PUBCHEM_CONFORMER_RMSD>
1.2

> <PUBCHEM_CONFORMER_DIVERSEORDER>
1
172
144
51
31
72
162
163
70
38
26
58
71
39
206
56
43
19
54
118
135
69
67
20
46
145
184
62
18
140
50
152
138
59
64
16
8
133
123
97
44
125
148
120
132
111
78
23
149
103
122
99
89
116
81
77
82
178
194
185
198
35
37
94
108
86
168
190
110
105
30
203
68
126
79
192
74
134
48
154
83
91
201
47
130
42
102
153
60
166
131
171
90
191
164
167
25
180
129
53
52
170
150
147
142
117
87
65
85
137
98
73
63
182
179
13
49
92
100
104
188
95
173
7
76
208
55
33
45
157
109
6
156
186
113
200
75
115
114
28
61
127
183
193
40
169
29
57
204
175
205
128
96
197
4
21
112
119
151
24
36
174
202
155
17
159
158
207
11
209
124
196
14
12
146
101
32
80
106
5
189
41
210
10
88
84
176
199
22
187
177
27
15
136
160
93
9
211
195
3
107
2
141
212
121
161
181
165
139
143
34
66

> <PUBCHEM_MMFF94_PARTIAL_CHARGES>
45
1 -0.08
10 -0.62
11 0.27
12 0.18
13 0.45
14 0.05
15 -0.14
16 0.27
17 0.44
18 0.54
19 0.09
2 -0.08
20 -0.14
21 -0.15
22 0.44
23 -0.15
24 -0.15
25 -0.15
26 -0.05
27 0.71
28 0.05
29 0.33
3 -0.57
30 0.05
31 0.18
32 -0.15
33 -0.15
34 0.16
35 0.16
4 -0.57
45 0.37
46 0.15
49 0.15
5 -0.81
50 0.15
51 0.15
52 0.37
56 0.15
57 0.15
58 0.15
59 0.15
6 -0.57
7 -0.49
8 -0.73
9 -0.57

> <PUBCHEM_EFFECTIVE_ROTOR_COUNT>
8.8

> <PUBCHEM_PHARMACOPHORE_FEATURES>
12
1 10 acceptor
1 3 acceptor
1 4 acceptor
1 5 cation
1 7 donor
1 8 donor
1 9 acceptor
5 1 6 14 15 17 rings
5 2 9 26 28 29 rings
6 10 30 32 33 34 35 rings
6 19 20 21 23 24 25 rings
6 5 11 12 13 14 15 rings

> <PUBCHEM_HEAVY_ATOM_COUNT>
35

> <PUBCHEM_ATOM_DEF_STEREO_COUNT>
0

> <PUBCHEM_ATOM_UDEF_STEREO_COUNT>
0

> <PUBCHEM_BOND_DEF_STEREO_COUNT>
0

> <PUBCHEM_BOND_UDEF_STEREO_COUNT>
0

> <PUBCHEM_ISOTOPIC_ATOM_COUNT>
0

> <PUBCHEM_COMPONENT_COUNT>
1

> <PUBCHEM_CACTVS_TAUTO_COUNT>
6

> <PUBCHEM_CONFORMER_ID>
051095FA00000001

> <PUBCHEM_MMFF94_ENERGY>
80.519

> <PUBCHEM_FEATURE_SELFOVERLAP>
60.968

> <PUBCHEM_SHAPE_FINGERPRINT>
10462674 296 17548984356134713760
10556698 54 18341346573383973030
10673678 19 18339927005014828451
10864689 126 18410020940163209380
10917259 69 18337111268117529932
11273773 38 18339360738739772203
11331860 1 17978792638157479584
11374522 174 18260845794643558181
11476731 99 18197497544580149336
11479125 193 18337397135911654113
11505856 67 18269827791600035079
11621639 336 17763746490863725426
11761917 142 17836073847487607672
11828042 163 18411708673780512204
11828042 53 17903648715719578228
12061779 8 16807878678550865212
13944108 23 18123188996134447145
14251764 75 18409448089835163363
14747282 540 18045788888499289420
14790565 3 18410855473303805235
15001296 14 18335133185461193545
15145343 54 18260271880223445637
15276724 80 18125448758707586691
15320295 198 17828765033020553117
15320467 1 18266741268633041832
15400415 2 18410572924517062529
155225 5 17761774361977157528
15530120 55 17845922047918186895
15773879 134 18411693263015790053
15979999 66 17478898186014203518
16067689 134 17766009298479085337
19053607 189 18268700787912568576
19302320 297 18265329512829950347
20580484 21 18050568439982116685
20691028 202 18411133641128869525
21792965 106 17905888434058628592
21859007 373 17335335426355575784
23569914 152 17985009033010073094
23576562 1 18128255580498335439
24204213 92 17843979036018502998
3103668 31 16107837839564604151
3388396 114 17621865917836634622
44280116 191 18265623091351827376
4756261 7 17691727723251884555
508180 173 18412273818193235698
5109719 28 18339091380720073139
5265222 85 18340486768303060617
53794403 172 18338796711155838739
5951187 136 18342745078854383990
6036956 94 17685779424862766461
6176135 31 18336816542122193616
636783 164 17911491493985373256

> <PUBCHEM_SHAPE_MULTIPOLES>
686.36
20.69
9.96
0.97
20.29
2.04
-0.13
31.82
3.45
-4.95
0.38
-0.54
-0.8
-1.17

> <PUBCHEM_SHAPE_SELFOVERLAP>
1471.418

> <PUBCHEM_SHAPE_VOLUME>
382.8

> <PUBCHEM_COORDINATE_TYPE>
2
5
10

$$$$
84973051
  -OEChem-05102415103D

 55 59  0     1  0  0  0  0  0999 V2000
   -3.4616    1.4968    0.6402 S   0  0  0  0  0  0  0  0  0  0  0  0
   -3.9952   -2.8488   -1.0280 O   0  0  0  0  0  0  0  0  0  0  0  0
    3.8226   -3.1340    0.2295 O   0  0  0  0  0  0  0  0  0  0  0  0
   -6.7834    3.7154   -0.0929 N   0  0  2  0  0  0  0  0  0  0  0  0
   -5.1564   -0.1276   -0.4661 N   0  0  0  0  0  0  0  0  0  0  0  0
   -2.9412   -0.9830   -0.0455 N   0  0  0  0  0  0  0  0  0  0  0  0
    5.3929    0.7464   -0.1479 N   0  0  0  0  0  0  0  0  0  0  0  0
    2.1208   -2.0713    1.3932 N   0  0  0  0  0  0  0  0  0  0  0  0
    3.4793    0.3729    0.9479 N   0  0  0  0  0  0  0  0  0  0  0  0
    8.3760    4.2895   -1.4045 N   0  0  0  0  0  0  0  0  0  0  0  0
   -7.7518    2.6002    0.0082 C   0  0  0  0  0  0  0  0  0  0  0  0
   -7.2072    1.3116   -0.6501 C   0  0  0  0  0  0  0  0  0  0  0  0
   -5.5362    3.4303    0.6580 C   0  0  0  0  0  0  0  0  0  0  0  0
   -5.7936    1.0743   -0.2542 C   0  0  0  0  0  0  0  0  0  0  0  0
   -5.0309    2.0659    0.3254 C   0  0  0  0  0  0  0  0  0  0  0  0
   -7.3815    4.9648    0.3755 C   0  0  0  0  0  0  0  0  0  0  0  0
   -3.9179   -0.0227   -0.0302 C   0  0  0  0  0  0  0  0  0  0  0  0
   -3.0121   -2.3140   -0.5266 C   0  0  0  0  0  0  0  0  0  0  0  0
   -1.7629   -3.1140   -0.4297 C   0  0  0  0  0  0  0  0  0  0  0  0
    0.3516   -3.5703    0.6466 C   0  0  0  0  0  0  0  0  0  0  0  0
    1.3594   -3.2556    1.6999 C   0  0  0  0  0  0  0  0  0  0  0  0
   -0.8209   -2.8200    0.5562 C   0  0  0  0  0  0  0  0  0  0  0  0
   -1.5323   -4.1583   -1.3254 C   0  0  0  0  0  0  0  0  0  0  0  0
    3.9853   -0.8065    0.4632 C   0  0  0  0  0  0  0  0  0  0  0  0
    4.3378    1.2987    0.5719 C   0  0  0  0  0  0  0  0  0  0  0  0
    0.5821   -4.6145   -0.2490 C   0  0  0  0  0  0  0  0  0  0  0  0
    5.1637   -0.6040   -0.2158 C   0  0  0  0  0  0  0  0  0  0  0  0
   -0.3597   -4.9084   -1.2352 C   0  0  0  0  0  0  0  0  0  0  0  0
    3.3067   -2.1113    0.6727 C   0  0  0  0  0  0  0  0  0  0  0  0
    6.4473    1.4929   -0.6692 C   0  0  0  0  0  0  0  0  0  0  0  0
    4.3606    2.7090    0.7733 C   0  0  0  0  0  0  0  0  0  0  0  0
    6.4657    2.8245   -0.4770 C   0  0  0  0  0  0  0  0  0  0  0  0
    5.3759    3.4400    0.2732 C   0  0  0  0  0  0  0  0  0  0  0  0
    7.5170    3.6309   -0.9874 C   0  0  0  0  0  0  0  0  0  0  0  0
   -8.6899    2.8647   -0.4951 H   0  0  0  0  0  0  0  0  0  0  0  0
   -7.9930    2.4044    1.0620 H   0  0  0  0  0  0  0  0  0  0  0  0
   -7.2541    1.4089   -1.7415 H   0  0  0  0  0  0  0  0  0  0  0  0
   -7.8317    0.4585   -0.3638 H   0  0  0  0  0  0  0  0  0  0  0  0
   -5.7141    3.4858    1.7400 H   0  0  0  0  0  0  0  0  0  0  0  0
   -4.7810    4.1811    0.3971 H   0  0  0  0  0  0  0  0  0  0  0  0
   -8.2620    5.2182   -0.2252 H   0  0  0  0  0  0  0  0  0  0  0  0
   -6.6754    5.7950    0.2633 H   0  0  0  0  0  0  0  0  0  0  0  0
   -7.6857    4.9091    1.4269 H   0  0  0  0  0  0  0  0  0  0  0  0
   -2.0528   -0.6454    0.3121 H   0  0  0  0  0  0  0  0  0  0  0  0
    0.8585   -3.0857    2.6601 H   0  0  0  0  0  0  0  0  0  0  0  0
    2.0468   -4.0966    1.8501 H   0  0  0  0  0  0  0  0  0  0  0  0
   -0.9866   -2.0356    1.2892 H   0  0  0  0  0  0  0  0  0  0  0  0
   -2.2504   -4.4004   -2.1044 H   0  0  0  0  0  0  0  0  0  0  0  0
    1.4918   -5.2063   -0.1919 H   0  0  0  0  0  0  0  0  0  0  0  0
    1.7657   -1.1754    1.7155 H   0  0  0  0  0  0  0  0  0  0  0  0
    5.8397   -1.2773   -0.7258 H   0  0  0  0  0  0  0  0  0  0  0  0
   -0.1792   -5.7203   -1.9337 H   0  0  0  0  0  0  0  0  0  0  0  0
    7.2152    0.9545   -1.2139 H   0  0  0  0  0  0  0  0  0  0  0  0
    3.5573    3.1800    1.3289 H   0  0  0  0  0  0  0  0  0  0  0  0
    5.3946    4.5149    0.4259 H   0  0  0  0  0  0  0  0  0  0  0  0
  1 15  1  0  0  0  0
  1 17  1  0  0  0  0
  2 18  2  0  0  0  0
  3 29  2  0  0  0  0
  4 11  1  0  0  0  0
  4 13  1  0  0  0  0
  4 16  1  0  0  0  0
  5 14  1  0  0  0  0
  5 17  2  0  0  0  0
  6 17  1  0  0  0  0
  6 18  1  0  0  0  0
  6 44  1  0  0  0  0
  7 25  1  0  0  0  0
  7 27  1  0  0  0  0
  7 30  1  0  0  0  0
  8 21  1  0  0  0  0
  8 29  1  0  0  0  0
  8 50  1  0  0  0  0
  9 24  1  0  0  0  0
  9 25  2  0  0  0  0
 10 34  3  0  0  0  0
 11 12  1  0  0  0  0
 11 35  1  0  0  0  0
 11 36  1  0  0  0  0
 12 14  1  0  0  0  0
 12 37  1  0  0  0  0
 12 38  1  0  0  0  0
 13 15  1  0  0  0  0
 13 39  1  0  0  0  0
 13 40  1  0  0  0  0
 14 15  2  0  0  0  0
 16 41  1  0  0  0  0
 16 42  1  0  0  0  0
 16 43  1  0  0  0  0
 18 19  1  0  0  0  0
 19 22  1  0  0  0  0
 19 23  2  0  0  0  0
 20 21  1  0  0  0  0
 20 22  2  0  0  0  0
 20 26  1  0  0  0  0
 21 45  1  0  0  0  0
 21 46  1  0  0  0  0
 22 47  1  0  0  0  0
 23 28  1  0  0  0  0
 23 48  1  0  0  0  0
 24 27  2  0  0  0  0
 24 29  1  0  0  0  0
 25 31  1  0  0  0  0
 26 28  2  0  0  0  0
 26 49  1  0  0  0  0
 27 51  1  0  0  0  0
 28 52  1  0  0  0  0
 30 32  2  0  0  0  0
 30 53  1  0  0  0  0
 31 33  2  0  0  0  0
 31 54  1  0  0  0  0
 32 33  1  0  0  0  0
 32 34  1  0  0  0  0
 33 55  1  0  0  0  0
M  END
> <PUBCHEM_COMPOUND_CID>
84973051

> <PUBCHEM_CONFORMER_RMSD>
1

> <PUBCHEM_CONFORMER_DIVERSEORDER>
1
256
81
76
240
182
145
262
216
281
116
41
229
179
114
241
87
70
255
84
284
186
82
315
252
103
244
184
266
98
155
55
37
160
53
99
102
92
89
231
187
185
172
14
115
22
85
303
239
189
108
91
236
196
291
298
280
287
46
188
71
20
118
142
86
205
32
292
158
62
94
134
254
242
259
31
33
157
60
139
97
190
173
213
45
130
90
234
88
40
128
261
195
313
78
129
59
137
34
51
153
283
66
183
223
111
149
44
222
306
228
77
38
312
126
206
67
148
138
310
73
177
15
161
52
289
233
309
26
64
207
294
293
141
132
58
121
247
21
12
243
163
169
167
110
210
95
83
299
218
290
274
277
174
43
109
135
208
35
301
311
170
23
72
131
217
302
113
143
282
7
29
16
245
4
300
146
147
219
270
61
258
268
199
269
225
211
271
101
226
296
57
272
100
19
124
63
159
232
9
136
263
193
227
295
304
178
165
230
265
150
209
75
133
260
204
10
106
156
54
5
250
8
215
267
314
27
112
297
273
288
257
251
65
220
212
285
200
166
276
202
164
96
278
171
197
93
279
224
107
168
39
176
68
203
264
24
191
214
246
286
253
221
25
237
48
50
305
36
120
119
80
125
74
104
105
181
275
175
307
140
11
152
194
180
144
249
3
201
28
151
238
123
17
47
127
198
2
56
13
122
162
248
69
235
42
308
117
154
6
79
49
18
30
192

> <PUBCHEM_MMFF94_PARTIAL_CHARGES>
44
1 -0.08
10 -0.56
11 0.27
12 0.18
13 0.45
14 0.05
15 -0.14
16 0.27
17 0.44
18 0.54
19 0.09
2 -0.57
20 -0.14
21 0.44
22 -0.15
23 -0.15
24 0.14
25 0.14
26 -0.15
27 -0.3
28 -0.15
29 0.72
3 -0.57
30 -0.18
31 -0.11
32 0.06
33 -0.15
34 0.49
4 -0.81
44 0.37
47 0.15
48 0.15
49 0.15
5 -0.57
50 0.37
51 0.15
52 0.15
53 0.15
54 0.15
55 0.15
6 -0.49
7 0.33
8 -0.73
9 -0.57

> <PUBCHEM_EFFECTIVE_ROTOR_COUNT>
7.8

> <PUBCHEM_PHARMACOPHORE_FEATURES>
12
1 10 acceptor
1 2 acceptor
1 3 acceptor
1 4 cation
1 6 donor
1 8 donor
3 7 9 25 cation
5 1 5 14 15 17 rings
5 7 9 24 25 27 rings
6 19 20 22 23 26 28 rings
6 4 11 12 13 14 15 rings
6 7 25 30 31 32 33 rings

> <PUBCHEM_HEAVY_ATOM_COUNT>
34

> <PUBCHEM_ATOM_DEF_STEREO_COUNT>
0

> <PUBCHEM_ATOM_UDEF_STEREO_COUNT>
0

> <PUBCHEM_BOND_DEF_STEREO_COUNT>
0

> <PUBCHEM_BOND_UDEF_STEREO_COUNT>
0

> <PUBCHEM_ISOTOPIC_ATOM_COUNT>
0

> <PUBCHEM_COMPONENT_COUNT>
1

> <PUBCHEM_CACTVS_TAUTO_COUNT>
6

> <PUBCHEM_CONFORMER_ID>
051095FB00000001

> <PUBCHEM_MMFF94_ENERGY>
68.8304

> <PUBCHEM_FEATURE_SELFOVERLAP>
61.082

> <PUBCHEM_SHAPE_FINGERPRINT>
10556698 54 17773856761683586545
10673678 19 18341613651588498587
10864689 126 18342738542194052400
10917259 128 18195230334834912696
10917259 69 18410013265631702932
11273773 38 18269269075955930875
11374522 174 18335994090102576661
11374522 363 18045769096979421852
11476731 99 18055065725933768104
11479125 193 18409733945720740993
11505856 67 18269544087593378511
11761917 142 17981032326716960576
11828042 163 18339931420884455700
11828042 200 18125704929034845655
11828042 53 18193001637593063012
1200032 147 18113338605180201578
12124843 1 18131635599278883612
13008946 62 17988647329802440661
13944108 23 18124875651192777857
14026016 13 18412268333245620505
14251764 75 18409446968679887515
14790565 3 18412539903716587667
15001296 14 18335979766517805035
15064981 113 17632307800215448454
15145343 54 18334014991211048653
15198563 99 17840295954831973495
15320295 198 17614279966816493829
15400415 2 18411978053032168529
155225 6 18337955593382251185
15979999 66 17336189264678108111
15980000 95 17761208809522423266
16728433 281 18044943617899242140
17899979 129 18338240362408551792
18339144 43 17340991988088812273
19053607 189 18411690002723843696
19302320 297 18193834834311975707
20691028 202 18411412912528738505
20766409 102 18410855478774854229
21792965 106 18122903403429604744
23516275 100 16974189866095801801
23523788 1 8789741577796301286
23576562 1 17985547737293983415
24204213 29 16155378760608985938
245318 6 18261685795993913735
3388396 114 16897929964580457164
397830 11 18120105992544945531
42767 28 18059861709527297784
4366758 26 18339083666464138953
437795 171 18116422666013251565
4760202 70 18271232856602579109
5109719 28 18341340990147988209
5265222 85 18341049705160550913
53794403 172 18196651800820250599
57366028 249 17689146809481592101
5951187 136 18271812250714996870
59520647 147 18408893918701144800
6036956 94 18268434538669067345
6058803 2 18192967457288532714
6673363 416 17905893926187280278
7288768 16 17822006570613798114
7970288 3 9691318684115730507

> <PUBCHEM_SHAPE_MULTIPOLES>
656.95
23.61
8.54
1.13
1.4
2.24
0.03
-45.42
-4.8
0.32
-1.43
-0.79
0.52
-4.04

> <PUBCHEM_SHAPE_SELFOVERLAP>
1427.403

> <PUBCHEM_SHAPE_VOLUME>
360.4

> <PUBCHEM_COORDINATE_TYPE>
2
5
10

$$$$
84973053
  -OEChem-05102415103D

 61 65  0     1  0  0  0  0  0999 V2000
   -3.0085   -0.7015   -0.4389 S   0  0  0  0  0  0  0  0  0  0  0  0
   -2.8675    3.8034    0.8328 O   0  0  0  0  0  0  0  0  0  0  0  0
    4.9082    2.7596   -0.2762 O   0  0  0  0  0  0  0  0  0  0  0  0
   -7.5130   -3.4243   -0.1548 N   0  0  0  0  0  0  0  0  0  0  0  0
   -4.4350    1.2553    0.4846 N   0  0  0  0  0  0  0  0  0  0  0  0
   -2.1107    1.7166    0.0393 N   0  0  0  0  0  0  0  0  0  0  0  0
    5.8476   -1.2675    0.4734 N   0  0  0  0  0  0  0  0  0  0  0  0
    3.0702    1.8739   -1.3793 N   0  0  0  0  0  0  0  0  0  0  0  0
    4.0259   -0.7016   -0.6926 N   0  0  0  0  0  0  0  0  0  0  0  0
    5.0607   -6.5174    0.1648 N   0  0  0  0  0  0  0  0  0  0  0  0
   -6.8635   -2.1215   -0.2847 C   0  0  1  0  0  0  0  0  0  0  0  0
   -7.3093   -1.1888    0.8647 C   0  0  0  0  0  0  0  0  0  0  0  0
   -5.3287   -2.3086   -0.3038 C   0  0  0  0  0  0  0  0  0  0  0  0
   -6.6990    0.2191    0.7283 C   0  0  0  0  0  0  0  0  0  0  0  0
   -4.6539   -0.9910   -0.1157 C   0  0  0  0  0  0  0  0  0  0  0  0
   -5.2548    0.1521    0.3725 C   0  0  0  0  0  0  0  0  0  0  0  0
   -8.9651   -3.2667   -0.0749 C   0  0  0  0  0  0  0  0  0  0  0  0
   -7.1545   -4.2894   -1.2784 C   0  0  0  0  0  0  0  0  0  0  0  0
   -3.2254    0.9218    0.0866 C   0  0  0  0  0  0  0  0  0  0  0  0
   -1.9763    3.0801    0.4011 C   0  0  0  0  0  0  0  0  0  0  0  0
   -0.6167    3.6647    0.2619 C   0  0  0  0  0  0  0  0  0  0  0  0
    0.2753    3.1415   -0.6742 C   0  0  0  0  0  0  0  0  0  0  0  0
    1.5513    3.6898   -0.8043 C   0  0  0  0  0  0  0  0  0  0  0  0
   -0.2326    4.7365    1.0681 C   0  0  0  0  0  0  0  0  0  0  0  0
    2.5056    3.1297   -1.8042 C   0  0  0  0  0  0  0  0  0  0  0  0
    1.9354    4.7614    0.0018 C   0  0  0  0  0  0  0  0  0  0  0  0
    1.0435    5.2846    0.9382 C   0  0  0  0  0  0  0  0  0  0  0  0
    4.7068    0.4236   -0.3027 C   0  0  0  0  0  0  0  0  0  0  0  0
    4.7249   -1.7121   -0.2174 C   0  0  0  0  0  0  0  0  0  0  0  0
    5.8337    0.1023    0.4165 C   0  0  0  0  0  0  0  0  0  0  0  0
    4.2421    1.7937   -0.6396 C   0  0  0  0  0  0  0  0  0  0  0  0
    6.7640   -2.1194    1.0803 C   0  0  0  0  0  0  0  0  0  0  0  0
    4.5252   -3.1230   -0.2938 C   0  0  0  0  0  0  0  0  0  0  0  0
    5.4069   -3.9612    0.2919 C   0  0  0  0  0  0  0  0  0  0  0  0
    6.5710   -3.4465    1.0066 C   0  0  0  0  0  0  0  0  0  0  0  0
    5.2163   -5.3692    0.2221 C   0  0  0  0  0  0  0  0  0  0  0  0
   -7.1634   -1.6438   -1.2303 H   0  0  0  0  0  0  0  0  0  0  0  0
   -7.0093   -1.6218    1.8288 H   0  0  0  0  0  0  0  0  0  0  0  0
   -8.3926   -1.0383    0.8989 H   0  0  0  0  0  0  0  0  0  0  0  0
   -4.9990   -2.7400   -1.2561 H   0  0  0  0  0  0  0  0  0  0  0  0
   -5.0108   -2.9810    0.5039 H   0  0  0  0  0  0  0  0  0  0  0  0
   -6.8344    0.7722    1.6642 H   0  0  0  0  0  0  0  0  0  0  0  0
   -7.2267    0.7708   -0.0592 H   0  0  0  0  0  0  0  0  0  0  0  0
   -9.4617   -4.2409   -0.1664 H   0  0  0  0  0  0  0  0  0  0  0  0
   -9.3652   -2.6213   -0.8654 H   0  0  0  0  0  0  0  0  0  0  0  0
   -9.2830   -2.8938    0.9036 H   0  0  0  0  0  0  0  0  0  0  0  0
   -7.7193   -5.2286   -1.2338 H   0  0  0  0  0  0  0  0  0  0  0  0
   -6.1039   -4.5940   -1.2444 H   0  0  0  0  0  0  0  0  0  0  0  0
   -7.3618   -3.8230   -2.2485 H   0  0  0  0  0  0  0  0  0  0  0  0
   -1.2833    1.2147   -0.2685 H   0  0  0  0  0  0  0  0  0  0  0  0
   -0.0053    2.3299   -1.3396 H   0  0  0  0  0  0  0  0  0  0  0  0
    1.9917    2.9544   -2.7565 H   0  0  0  0  0  0  0  0  0  0  0  0
    3.3172    3.8371   -2.0122 H   0  0  0  0  0  0  0  0  0  0  0  0
   -0.9100    5.1557    1.8073 H   0  0  0  0  0  0  0  0  0  0  0  0
    2.9269    5.1975   -0.0869 H   0  0  0  0  0  0  0  0  0  0  0  0
    1.3433    6.1179    1.5670 H   0  0  0  0  0  0  0  0  0  0  0  0
    2.5819    1.0187   -1.6300 H   0  0  0  0  0  0  0  0  0  0  0  0
    6.6030    0.7054    0.8800 H   0  0  0  0  0  0  0  0  0  0  0  0
    7.6075   -1.6759    1.5955 H   0  0  0  0  0  0  0  0  0  0  0  0
    3.6553   -3.4920   -0.8286 H   0  0  0  0  0  0  0  0  0  0  0  0
    7.2671   -4.1373    1.4696 H   0  0  0  0  0  0  0  0  0  0  0  0
  1 15  1  0  0  0  0
  1 19  1  0  0  0  0
  2 20  2  0  0  0  0
  3 31  2  0  0  0  0
  4 11  1  0  0  0  0
  4 17  1  0  0  0  0
  4 18  1  0  0  0  0
  5 16  1  0  0  0  0
  5 19  2  0  0  0  0
  6 19  1  0  0  0  0
  6 20  1  0  0  0  0
  6 50  1  0  0  0  0
  7 29  1  0  0  0  0
  7 30  1  0  0  0  0
  7 32  1  0  0  0  0
  8 25  1  0  0  0  0
  8 31  1  0  0  0  0
  8 57  1  0  0  0  0
  9 28  1  0  0  0  0
  9 29  2  0  0  0  0
 10 36  3  0  0  0  0
 11 12  1  0  0  0  0
 11 13  1  0  0  0  0
 11 37  1  0  0  0  0
 12 14  1  0  0  0  0
 12 38  1  0  0  0  0
 12 39  1  0  0  0  0
 13 15  1  0  0  0  0
 13 40  1  0  0  0  0
 13 41  1  0  0  0  0
 14 16  1  0  0  0  0
 14 42  1  0  0  0  0
 14 43  1  0  0  0  0
 15 16  2  0  0  0  0
 17 44  1  0  0  0  0
 17 45  1  0  0  0  0
 17 46  1  0  0  0  0
 18 47  1  0  0  0  0
 18 48  1  0  0  0  0
 18 49  1  0  0  0  0
 20 21  1  0  0  0  0
 21 22  1  0  0  0  0
 21 24  2  0  0  0  0
 22 23  2  0  0  0  0
 22 51  1  0  0  0  0
 23 25  1  0  0  0  0
 23 26  1  0  0  0  0
 24 27  1  0  0  0  0
 24 54  1  0  0  0  0
 25 52  1  0  0  0  0
 25 53  1  0  0  0  0
 26 27  2  0  0  0  0
 26 55  1  0  0  0  0
 27 56  1  0  0  0  0
 28 30  2  0  0  0  0
 28 31  1  0  0  0  0
 29 33  1  0  0  0  0
 30 58  1  0  0  0  0
 32 35  2  0  0  0  0
 32 59  1  0  0  0  0
 33 34  2  0  0  0  0
 33 60  1  0  0  0  0
 34 35  1  0  0  0  0
 34 36  1  0  0  0  0
 35 61  1  0  0  0  0
M  END
> <PUBCHEM_COMPOUND_CID>
84973053

> <PUBCHEM_CONFORMER_RMSD>
1.2

> <PUBCHEM_CONFORMER_DIVERSEORDER>
1
53
15
18
39
158
95
91
128
90
119
22
19
131
6
94
126
96
152
179
7
153
134
86
27
57
98
71
141
26
112
23
92
100
87
38
145
139
49
35
127
80
104
85
170
46
182
76
65
8
32
149
34
132
130
125
47
28
9
73
43
37
33
44
62
82
29
51
45
58
144
75
56
122
105
142
83
103
108
173
24
136
25
157
81
11
54
13
154
137
120
5
178
61
176
146
174
31
183
42
151
99
184
14
16
180
21
88
147
52
77
165
138
69
156
124
66
89
36
135
55
12
177
79
159
41
155
169
162
143
59
129
171
107
186
102
109
161
17
118
148
4
111
160
50
163
121
60
110
40
101
30
140
68
116
67
168
97
48
72
115
181
78
117
93
20
185
64
167
114
123
70
63
164
166
150
84
133
106
3
172
175
113
10
2
74

> <PUBCHEM_MMFF94_PARTIAL_CHARGES>
45
1 -0.08
10 -0.56
11 0.27
13 0.18
14 0.18
15 -0.14
16 0.05
17 0.27
18 0.27
19 0.44
2 -0.57
20 0.54
21 0.09
22 -0.15
23 -0.14
24 -0.15
25 0.44
26 -0.15
27 -0.15
28 0.14
29 0.14
3 -0.57
30 -0.3
31 0.72
32 -0.18
33 -0.11
34 0.06
35 -0.15
36 0.49
4 -0.81
5 -0.57
50 0.37
51 0.15
54 0.15
55 0.15
56 0.15
57 0.37
58 0.15
59 0.15
6 -0.49
60 0.15
61 0.15
7 0.33
8 -0.73
9 -0.57

> <PUBCHEM_EFFECTIVE_ROTOR_COUNT>
8.8

> <PUBCHEM_PHARMACOPHORE_FEATURES>
12
1 10 acceptor
1 2 acceptor
1 3 acceptor
1 4 cation
1 6 donor
1 8 donor
3 7 9 29 cation
5 1 5 15 16 19 rings
5 7 9 28 29 30 rings
6 11 12 13 14 15 16 rings
6 21 22 23 24 26 27 rings
6 7 29 32 33 34 35 rings

> <PUBCHEM_HEAVY_ATOM_COUNT>
36

> <PUBCHEM_ATOM_DEF_STEREO_COUNT>
1

> <PUBCHEM_ATOM_UDEF_STEREO_COUNT>
0

> <PUBCHEM_BOND_DEF_STEREO_COUNT>
0

> <PUBCHEM_BOND_UDEF_STEREO_COUNT>
0

> <PUBCHEM_ISOTOPIC_ATOM_COUNT>
0

> <PUBCHEM_COMPONENT_COUNT>
1

> <PUBCHEM_CACTVS_TAUTO_COUNT>
6

> <PUBCHEM_CONFORMER_ID>
051095FD00000001

> <PUBCHEM_MMFF94_ENERGY>
74.2969

> <PUBCHEM_FEATURE_SELFOVERLAP>
61.081

> <PUBCHEM_SHAPE_FINGERPRINT>
10049733 168 17917445223550101271
10100884 174 18261109630912452650
10622 236 18336550425906432740
11399510 152 17916004791083706600
11409948 35 18336543933044580663
11607047 403 18338507652084970768
117089 54 18409172082378545274
11761917 116 18265341612792274038
13008946 335 17338431628960561560
13553639 21 18337122232198872467
13947947 140 18335146366969350927
15019793 15 17832140520875342026
15419008 145 18120925111196440882
15467298 65 17982447397971145519
15569901 51 18409166580431052227
15728490 83 18337392617352785081
16628084 112 18408886274338411149
16728300 4 18413669111095869357
17324776 126 18262796259826140330
17492 89 18337674088630971756
19301676 85 18121491363509291765
21792965 184 18411976963265808534
23523788 1 18195215976311012128
23569914 152 18051098482190671797
23569943 247 18408325510681950291
24204213 148 18334590019166446238
24893989 43 17986403406463365942
260245 28 18340203110723789047
2835820 82 18337955696841384827
32027 91 18412256247192253485
4073 2 17476644647566372537
44344687 77 18041573511453157419
4756088 132 17830163615626535994
50009960 94 18336537287400403335
50080093 196 17101994404990128786
6057620 51 18334583426196662166
6058803 2 18193021273540039900
6201320 221 18339066194974457743
6201320 77 17389140925170875529
6201460 15 18265338309287046702
6441014 3 18194962942190684594
7970288 3 18410573963956644272
9555976 147 17846513500060515601
9831232 110 18338231699887407133

> <PUBCHEM_SHAPE_MULTIPOLES>
698.11
24.33
9.84
1.07
28.66
1.82
-0.16
41.27
2.05
-10.14
0.82
-0.3
-0.45
-3.98

> <PUBCHEM_SHAPE_SELFOVERLAP>
1509.737

> <PUBCHEM_SHAPE_VOLUME>
385.4

> <PUBCHEM_COORDINATE_TYPE>
2
5
10

$$$$
84973054
  -OEChem-05102415103D

 61 65  0     1  0  0  0  0  0999 V2000
   -3.1561   -0.8198   -0.4792 S   0  0  0  0  0  0  0  0  0  0  0  0
   -3.0838    3.6148    1.0239 O   0  0  0  0  0  0  0  0  0  0  0  0
    4.6777    2.8267   -0.3614 O   0  0  0  0  0  0  0  0  0  0  0  0
   -7.5843   -3.6665   -0.2101 N   0  0  0  0  0  0  0  0  0  0  0  0
   -4.6002    1.0496    0.5869 N   0  0  0  0  0  0  0  0  0  0  0  0
   -2.3019    1.5919    0.1000 N   0  0  0  0  0  0  0  0  0  0  0  0
    5.7361   -1.2093    0.1451 N   0  0  0  0  0  0  0  0  0  0  0  0
    2.8289    1.9536   -1.4565 N   0  0  0  0  0  0  0  0  0  0  0  0
    3.8660   -0.6292   -0.9356 N   0  0  0  0  0  0  0  0  0  0  0  0
    8.2568   -5.0634    1.4955 N   0  0  0  0  0  0  0  0  0  0  0  0
   -6.9700   -2.3427   -0.2896 C   0  0  1  0  0  0  0  0  0  0  0  0
   -7.4031   -1.4827    0.9197 C   0  0  0  0  0  0  0  0  0  0  0  0
   -5.4325   -2.4898   -0.3626 C   0  0  0  0  0  0  0  0  0  0  0  0
   -6.8307   -0.0546    0.8404 C   0  0  0  0  0  0  0  0  0  0  0  0
   -4.7838   -1.1672   -0.1247 C   0  0  0  0  0  0  0  0  0  0  0  0
   -5.3966   -0.0666    0.4402 C   0  0  0  0  0  0  0  0  0  0  0  0
   -9.0366   -3.5500   -0.0803 C   0  0  0  0  0  0  0  0  0  0  0  0
   -7.2392   -4.4626   -1.3876 C   0  0  0  0  0  0  0  0  0  0  0  0
   -3.3955    0.7680    0.1373 C   0  0  0  0  0  0  0  0  0  0  0  0
   -2.1890    2.9377    0.5293 C   0  0  0  0  0  0  0  0  0  0  0  0
   -0.8484    3.5629    0.3821 C   0  0  0  0  0  0  0  0  0  0  0  0
    0.0272    3.1118   -0.6055 C   0  0  0  0  0  0  0  0  0  0  0  0
    1.2854    3.6982   -0.7431 C   0  0  0  0  0  0  0  0  0  0  0  0
   -0.4659    4.6006    1.2324 C   0  0  0  0  0  0  0  0  0  0  0  0
    2.2223    3.2152   -1.7981 C   0  0  0  0  0  0  0  0  0  0  0  0
    1.6680    4.7358    0.1071 C   0  0  0  0  0  0  0  0  0  0  0  0
    0.7924    5.1868    1.0951 C   0  0  0  0  0  0  0  0  0  0  0  0
    4.5310    0.4909   -0.5055 C   0  0  0  0  0  0  0  0  0  0  0  0
    4.6039   -1.6448   -0.5363 C   0  0  0  0  0  0  0  0  0  0  0  0
    5.6864    0.1612    0.1633 C   0  0  0  0  0  0  0  0  0  0  0  0
    4.0241    1.8646   -0.7560 C   0  0  0  0  0  0  0  0  0  0  0  0
    6.6946   -2.0676    0.6795 C   0  0  0  0  0  0  0  0  0  0  0  0
    4.4387   -3.0525   -0.6823 C   0  0  0  0  0  0  0  0  0  0  0  0
    6.5354   -3.3962    0.5399 C   0  0  0  0  0  0  0  0  0  0  0  0
    5.3599   -3.8911   -0.1691 C   0  0  0  0  0  0  0  0  0  0  0  0
    7.4827   -4.3139    1.0657 C   0  0  0  0  0  0  0  0  0  0  0  0
   -7.3093   -1.8242   -1.1997 H   0  0  0  0  0  0  0  0  0  0  0  0
   -7.0641   -1.9576    1.8506 H   0  0  0  0  0  0  0  0  0  0  0  0
   -8.4882   -1.3615    0.9929 H   0  0  0  0  0  0  0  0  0  0  0  0
   -5.1213   -2.8626   -1.3455 H   0  0  0  0  0  0  0  0  0  0  0  0
   -5.0746   -3.1951    0.3990 H   0  0  0  0  0  0  0  0  0  0  0  0
   -6.9510    0.4454    1.8078 H   0  0  0  0  0  0  0  0  0  0  0  0
   -7.3947    0.5238    0.0987 H   0  0  0  0  0  0  0  0  0  0  0  0
   -9.5125   -4.5303   -0.2088 H   0  0  0  0  0  0  0  0  0  0  0  0
   -9.4755   -2.8745   -0.8237 H   0  0  0  0  0  0  0  0  0  0  0  0
   -9.3338   -3.2367    0.9253 H   0  0  0  0  0  0  0  0  0  0  0  0
   -7.7801   -5.4168   -1.3765 H   0  0  0  0  0  0  0  0  0  0  0  0
   -6.1812   -4.7420   -1.3999 H   0  0  0  0  0  0  0  0  0  0  0  0
   -7.4866   -3.9517   -2.3254 H   0  0  0  0  0  0  0  0  0  0  0  0
   -1.4725    1.1278   -0.2575 H   0  0  0  0  0  0  0  0  0  0  0  0
   -0.2539    2.3292   -1.3045 H   0  0  0  0  0  0  0  0  0  0  0  0
    1.6843    3.0769   -2.7432 H   0  0  0  0  0  0  0  0  0  0  0  0
    3.0103    3.9527   -1.9917 H   0  0  0  0  0  0  0  0  0  0  0  0
   -1.1305    4.9635    2.0120 H   0  0  0  0  0  0  0  0  0  0  0  0
    2.6458    5.2008    0.0131 H   0  0  0  0  0  0  0  0  0  0  0  0
    1.0912    5.9935    1.7582 H   0  0  0  0  0  0  0  0  0  0  0  0
    2.3537    1.1006   -1.7379 H   0  0  0  0  0  0  0  0  0  0  0  0
    6.4544    0.7586    0.6361 H   0  0  0  0  0  0  0  0  0  0  0  0
    7.5369   -1.6145    1.1910 H   0  0  0  0  0  0  0  0  0  0  0  0
    3.5699   -3.4344   -1.2068 H   0  0  0  0  0  0  0  0  0  0  0  0
    5.2353   -4.9641   -0.2796 H   0  0  0  0  0  0  0  0  0  0  0  0
  1 15  1  0  0  0  0
  1 19  1  0  0  0  0
  2 20  2  0  0  0  0
  3 31  2  0  0  0  0
  4 11  1  0  0  0  0
  4 17  1  0  0  0  0
  4 18  1  0  0  0  0
  5 16  1  0  0  0  0
  5 19  2  0  0  0  0
  6 19  1  0  0  0  0
  6 20  1  0  0  0  0
  6 50  1  0  0  0  0
  7 29  1  0  0  0  0
  7 30  1  0  0  0  0
  7 32  1  0  0  0  0
  8 25  1  0  0  0  0
  8 31  1  0  0  0  0
  8 57  1  0  0  0  0
  9 28  1  0  0  0  0
  9 29  2  0  0  0  0
 10 36  3  0  0  0  0
 11 12  1  0  0  0  0
 11 13  1  0  0  0  0
 11 37  1  0  0  0  0
 12 14  1  0  0  0  0
 12 38  1  0  0  0  0
 12 39  1  0  0  0  0
 13 15  1  0  0  0  0
 13 40  1  0  0  0  0
 13 41  1  0  0  0  0
 14 16  1  0  0  0  0
 14 42  1  0  0  0  0
 14 43  1  0  0  0  0
 15 16  2  0  0  0  0
 17 44  1  0  0  0  0
 17 45  1  0  0  0  0
 17 46  1  0  0  0  0
 18 47  1  0  0  0  0
 18 48  1  0  0  0  0
 18 49  1  0  0  0  0
 20 21  1  0  0  0  0
 21 22  1  0  0  0  0
 21 24  2  0  0  0  0
 22 23  2  0  0  0  0
 22 51  1  0  0  0  0
 23 25  1  0  0  0  0
 23 26  1  0  0  0  0
 24 27  1  0  0  0  0
 24 54  1  0  0  0  0
 25 52  1  0  0  0  0
 25 53  1  0  0  0  0
 26 27  2  0  0  0  0
 26 55  1  0  0  0  0
 27 56  1  0  0  0  0
 28 30  2  0  0  0  0
 28 31  1  0  0  0  0
 29 33  1  0  0  0  0
 30 58  1  0  0  0  0
 32 34  2  0  0  0  0
 32 59  1  0  0  0  0
 33 35  2  0  0  0  0
 33 60  1  0  0  0  0
 34 35  1  0  0  0  0
 34 36  1  0  0  0  0
 35 61  1  0  0  0  0
M  END
> <PUBCHEM_COMPOUND_CID>
84973054

> <PUBCHEM_CONFORMER_RMSD>
1.2

> <PUBCHEM_CONFORMER_DIVERSEORDER>
1
105
147
14
141
85
30
87
10
84
128
48
31
117
60
45
155
152
19
36
91
124
42
82
118
11
88
123
72
49
51
46
101
172
175
133
143
38
111
26
144
70
71
135
80
63
17
151
100
43
66
37
50
67
94
103
21
24
57
170
44
132
104
18
86
27
54
160
89
97
6
61
115
134
138
129
92
146
41
162
136
52
110
28
156
78
8
7
158
154
40
5
16
55
149
119
79
74
9
83
65
81
122
64
121
39
125
171
153
73
69
108
157
33
148
58
12
164
140
34
76
168
145
166
131
161
112
163
59
20
174
35
68
126
47
77
165
169
142
150
95
75
56
90
116
173
159
137
3
22
53
4
109
98
99
102
62
114
106
176
15
120
127
93
32
107
96
167
29
139
113
25
130
23
13
2

> <PUBCHEM_MMFF94_PARTIAL_CHARGES>
45
1 -0.08
10 -0.56
11 0.27
13 0.18
14 0.18
15 -0.14
16 0.05
17 0.27
18 0.27
19 0.44
2 -0.57
20 0.54
21 0.09
22 -0.15
23 -0.14
24 -0.15
25 0.44
26 -0.15
27 -0.15
28 0.14
29 0.14
3 -0.57
30 -0.3
31 0.72
32 -0.18
33 -0.11
34 0.06
35 -0.15
36 0.49
4 -0.81
5 -0.57
50 0.37
51 0.15
54 0.15
55 0.15
56 0.15
57 0.37
58 0.15
59 0.15
6 -0.49
60 0.15
61 0.15
7 0.33
8 -0.73
9 -0.57

> <PUBCHEM_EFFECTIVE_ROTOR_COUNT>
8.8

> <PUBCHEM_PHARMACOPHORE_FEATURES>
12
1 10 acceptor
1 2 acceptor
1 3 acceptor
1 4 cation
1 6 donor
1 8 donor
3 7 9 29 cation
5 1 5 15 16 19 rings
5 7 9 28 29 30 rings
6 11 12 13 14 15 16 rings
6 21 22 23 24 26 27 rings
6 7 29 32 33 34 35 rings

> <PUBCHEM_HEAVY_ATOM_COUNT>
36

> <PUBCHEM_ATOM_DEF_STEREO_COUNT>
1

> <PUBCHEM_ATOM_UDEF_STEREO_COUNT>
0

> <PUBCHEM_BOND_DEF_STEREO_COUNT>
0

> <PUBCHEM_BOND_UDEF_STEREO_COUNT>
0

> <PUBCHEM_ISOTOPIC_ATOM_COUNT>
0

> <PUBCHEM_COMPONENT_COUNT>
1

> <PUBCHEM_CACTVS_TAUTO_COUNT>
6

> <PUBCHEM_CONFORMER_ID>
051095FE00000001

> <PUBCHEM_MMFF94_ENERGY>
74.0751

> <PUBCHEM_FEATURE_SELFOVERLAP>
61.081

> <PUBCHEM_SHAPE_FINGERPRINT>
10100884 174 18261392205321754186
10556698 54 12252766892072870926
10622 236 18334862671468479620
11409948 35 18336826511817401879
11478447 30 18335693906554435626
11607047 403 18339353185127227504
117089 54 18410581669112220514
11761917 116 18337117753365114646
13008946 335 17195443440197648600
13553639 21 18337967773778361675
13782708 43 18188493592398967653
13947947 140 18336274487379534439
14344974 204 18122342385911065046
14747282 305 18334867156342167017
15152005 1 18336827494452919574
15419008 145 18194111912223805170
15467298 65 17840302556275627191
16628084 112 18337674213363917063
16728300 4 18341894108720880805
16728433 281 10806489020426283186
16993427 108 18413385449754145839
17324776 126 18335135341709830514
19303781 99 17750810852527220592
19841028 212 18408325471077483232
20609170 45 18263349332419806887
20721686 124 17761209217022174180
208703 8 18334572391776592050
21136928 87 18123180471431499544
21360442 33 18264768942878714909
21362267 20 17687176497408135250
23523788 1 18195498555057355584
23569943 247 18409172126114117875
24893989 43 17914628386882069510
2835820 82 18338518663937739027
32027 91 18413101775955315285
406291 66 18335139765357099610
4073 2 17405432582328403721
46848820 9 18412820279187633799
4760202 70 18114477678532599390
50009960 94 18410287012711794423
50080093 196 17174616057114753834
50742298 180 18336267856014164282
6058803 2 18193023472674039324
6201320 221 18340193203046153311
6201320 77 17389420226978212097
6201460 15 18118400649072099418
6441014 3 18339079272685220986
9555976 147 17845948337977455625
96874 4 18409731759387135975
9831232 110 18267019638970902845

> <PUBCHEM_SHAPE_MULTIPOLES>
698.11
26.15
9.2
1.19
17.46
2.25
0.1
-51.23
-3.7
-7.15
-1.58
-0.58
0.2
-5.43

> <PUBCHEM_SHAPE_SELFOVERLAP>
1509.545

> <PUBCHEM_SHAPE_VOLUME>
385.3

> <PUBCHEM_COORDINATE_TYPE>
2
5
10

$$$$
84973055
  -OEChem-05102415103D

 65 69  0     1  0  0  0  0  0999 V2000
   -3.3002   -0.8230   -0.4954 S   0  0  0  0  0  0  0  0  0  0  0  0
   -3.4080    3.6073    1.0183 O   0  0  0  0  0  0  0  0  0  0  0  0
    4.3778    3.1528   -0.3769 O   0  0  0  0  0  0  0  0  0  0  0  0
   -7.6077   -3.8494   -0.2285 N   0  0  0  0  0  0  0  0  0  0  0  0
   -4.8183    0.9832    0.5766 N   0  0  0  0  0  0  0  0  0  0  0  0
   -2.5448    1.6203    0.0887 N   0  0  0  0  0  0  0  0  0  0  0  0
    2.5674    2.2011   -1.4705 N   0  0  0  0  0  0  0  0  0  0  0  0
    5.9186   -2.9812    0.1831 N   0  0  0  0  0  0  0  0  0  0  0  0
    5.3335   -4.0893   -0.2922 N   0  0  0  0  0  0  0  0  0  0  0  0
    7.1674   -4.6202    0.8591 N   0  0  0  0  0  0  0  0  0  0  0  0
    6.1018   -5.0886    0.1241 N   0  0  0  0  0  0  0  0  0  0  0  0
   -7.0483   -2.5014   -0.3055 C   0  0  1  0  0  0  0  0  0  0  0  0
   -7.5149   -1.6627    0.9063 C   0  0  0  0  0  0  0  0  0  0  0  0
   -5.5060   -2.5853   -0.3806 C   0  0  0  0  0  0  0  0  0  0  0  0
   -7.0015   -0.2121    0.8298 C   0  0  0  0  0  0  0  0  0  0  0  0
   -4.9118   -1.2377   -0.1401 C   0  0  0  0  0  0  0  0  0  0  0  0
   -5.5687   -0.1645    0.4281 C   0  0  0  0  0  0  0  0  0  0  0  0
   -9.0634   -3.7929   -0.0971 C   0  0  0  0  0  0  0  0  0  0  0  0
   -7.2316   -4.6280   -1.4084 C   0  0  0  0  0  0  0  0  0  0  0  0
   -3.6037    0.7520    0.1251 C   0  0  0  0  0  0  0  0  0  0  0  0
   -2.4867    2.9685    0.5211 C   0  0  0  0  0  0  0  0  0  0  0  0
   -1.1730    3.6485    0.3741 C   0  0  0  0  0  0  0  0  0  0  0  0
   -0.2804    3.2362   -0.6153 C   0  0  0  0  0  0  0  0  0  0  0  0
    0.9506    3.8769   -0.7549 C   0  0  0  0  0  0  0  0  0  0  0  0
   -0.8346    4.7016    1.2240 C   0  0  0  0  0  0  0  0  0  0  0  0
    1.9066    3.4352   -1.8113 C   0  0  0  0  0  0  0  0  0  0  0  0
    1.2892    4.9298    0.0950 C   0  0  0  0  0  0  0  0  0  0  0  0
    0.3965    5.3423    1.0844 C   0  0  0  0  0  0  0  0  0  0  0  0
    4.3319    0.8129   -0.5212 C   0  0  0  0  0  0  0  0  0  0  0  0
    3.7659    2.1636   -0.7711 C   0  0  0  0  0  0  0  0  0  0  0  0
    5.3933   -1.7237   -0.0507 C   0  0  0  0  0  0  0  0  0  0  0  0
    5.7082    0.6515   -0.3606 C   0  0  0  0  0  0  0  0  0  0  0  0
    3.4865   -0.2939   -0.4464 C   0  0  0  0  0  0  0  0  0  0  0  0
    6.2388   -0.6168   -0.1254 C   0  0  0  0  0  0  0  0  0  0  0  0
    4.0171   -1.5623   -0.2112 C   0  0  0  0  0  0  0  0  0  0  0  0
    7.0344   -3.3140    0.8829 C   0  0  0  0  0  0  0  0  0  0  0  0
    7.9182   -2.3368    1.5424 C   0  0  0  0  0  0  0  0  0  0  0  0
   -7.4096   -1.9951   -1.2140 H   0  0  0  0  0  0  0  0  0  0  0  0
   -7.1557   -2.1254    1.8357 H   0  0  0  0  0  0  0  0  0  0  0  0
   -8.6040   -1.5862    0.9809 H   0  0  0  0  0  0  0  0  0  0  0  0
   -5.1810   -2.9426   -1.3646 H   0  0  0  0  0  0  0  0  0  0  0  0
   -5.1187   -3.2771    0.3790 H   0  0  0  0  0  0  0  0  0  0  0  0
   -7.5895    0.3445    0.0899 H   0  0  0  0  0  0  0  0  0  0  0  0
   -7.1412    0.2803    1.7984 H   0  0  0  0  0  0  0  0  0  0  0  0
   -9.4989   -4.7916   -0.2274 H   0  0  0  0  0  0  0  0  0  0  0  0
   -9.5304   -3.1343   -0.8385 H   0  0  0  0  0  0  0  0  0  0  0  0
   -9.3721   -3.4943    0.9095 H   0  0  0  0  0  0  0  0  0  0  0  0
   -7.7329   -5.6036   -1.3990 H   0  0  0  0  0  0  0  0  0  0  0  0
   -6.1631   -4.8637   -1.4223 H   0  0  0  0  0  0  0  0  0  0  0  0
   -7.5007   -4.1254   -2.3446 H   0  0  0  0  0  0  0  0  0  0  0  0
   -1.6974    1.1914   -0.2707 H   0  0  0  0  0  0  0  0  0  0  0  0
   -0.5284    2.4425   -1.3143 H   0  0  0  0  0  0  0  0  0  0  0  0
   -1.5132    5.0354    2.0045 H   0  0  0  0  0  0  0  0  0  0  0  0
    1.3740    3.2751   -2.7561 H   0  0  0  0  0  0  0  0  0  0  0  0
    2.6619    4.2061   -2.0054 H   0  0  0  0  0  0  0  0  0  0  0  0
    2.2456    5.4369   -0.0005 H   0  0  0  0  0  0  0  0  0  0  0  0
    0.6610    6.1612    1.7470 H   0  0  0  0  0  0  0  0  0  0  0  0
    2.1405    1.3477   -1.8141 H   0  0  0  0  0  0  0  0  0  0  0  0
    6.3845    1.4986   -0.4409 H   0  0  0  0  0  0  0  0  0  0  0  0
    2.4072   -0.2081   -0.5307 H   0  0  0  0  0  0  0  0  0  0  0  0
    7.3182   -0.6802   -0.1105 H   0  0  0  0  0  0  0  0  0  0  0  0
    3.3318   -2.4037   -0.1416 H   0  0  0  0  0  0  0  0  0  0  0  0
    8.4917   -2.8534    2.3222 H   0  0  0  0  0  0  0  0  0  0  0  0
    8.6598   -1.9288    0.8502 H   0  0  0  0  0  0  0  0  0  0  0  0
    7.3773   -1.5390    2.0585 H   0  0  0  0  0  0  0  0  0  0  0  0
  1 16  1  0  0  0  0
  1 20  1  0  0  0  0
  2 21  2  0  0  0  0
  3 30  2  0  0  0  0
  4 12  1  0  0  0  0
  4 18  1  0  0  0  0
  4 19  1  0  0  0  0
  5 17  1  0  0  0  0
  5 20  2  0  0  0  0
  6 20  1  0  0  0  0
  6 21  1  0  0  0  0
  6 51  1  0  0  0  0
  7 26  1  0  0  0  0
  7 30  1  0  0  0  0
  7 58  1  0  0  0  0
  8  9  1  0  0  0  0
  8 31  1  0  0  0  0
  8 36  1  0  0  0  0
  9 11  2  0  0  0  0
 10 11  1  0  0  0  0
 10 36  2  0  0  0  0
 12 13  1  0  0  0  0
 12 14  1  0  0  0  0
 12 38  1  0  0  0  0
 13 15  1  0  0  0  0
 13 39  1  0  0  0  0
 13 40  1  0  0  0  0
 14 16  1  0  0  0  0
 14 41  1  0  0  0  0
 14 42  1  0  0  0  0
 15 17  1  0  0  0  0
 15 43  1  0  0  0  0
 15 44  1  0  0  0  0
 16 17  2  0  0  0  0
 18 45  1  0  0  0  0
 18 46  1  0  0  0  0
 18 47  1  0  0  0  0
 19 48  1  0  0  0  0
 19 49  1  0  0  0  0
 19 50  1  0  0  0  0
 21 22  1  0  0  0  0
 22 23  1  0  0  0  0
 22 25  2  0  0  0  0
 23 24  2  0  0  0  0
 23 52  1  0  0  0  0
 24 26  1  0  0  0  0
 24 27  1  0  0  0  0
 25 28  1  0  0  0  0
 25 53  1  0  0  0  0
 26 54  1  0  0  0  0
 26 55  1  0  0  0  0
 27 28  2  0  0  0  0
 27 56  1  0  0  0  0
 28 57  1  0  0  0  0
 29 30  1  0  0  0  0
 29 32  2  0  0  0  0
 29 33  1  0  0  0  0
 31 34  2  0  0  0  0
 31 35  1  0  0  0  0
 32 34  1  0  0  0  0
 32 59  1  0  0  0  0
 33 35  2  0  0  0  0
 33 60  1  0  0  0  0
 34 61  1  0  0  0  0
 35 62  1  0  0  0  0
 36 37  1  0  0  0  0
 37 63  1  0  0  0  0
 37 64  1  0  0  0  0
 37 65  1  0  0  0  0
M  END
> <PUBCHEM_COMPOUND_CID>
84973055

> <PUBCHEM_CONFORMER_RMSD>
1.2

> <PUBCHEM_CONFORMER_DIVERSEORDER>
1
77
20
71
116
121
82
24
135
114
78
124
40
164
160
79
43
95
55
118
110
86
119
26
59
64
84
138
97
52
31
36
155
62
133
9
8
38
19
126
105
32
35
27
49
161
81
141
91
113
144
22
67
109
117
90
25
112
47
154
88
48
7
56
108
83
128
131
165
111
140
107
37
44
134
45
101
129
102
23
149
54
34
153
136
74
143
39
80
125
63
152
89
16
66
147
33
156
145
72
53
5
132
148
137
76
28
51
85
104
11
17
18
122
29
100
50
157
127
4
30
69
68
120
159
87
142
130
150
61
92
94
103
158
115
46
123
99
70
65
15
75
60
151
146
163
13
139
41
10
6
21
162
98
2
57
96
106
3
14
58
42
93
73
12

> <PUBCHEM_MMFF94_PARTIAL_CHARGES>
45
1 -0.08
10 -0.34
12 0.27
14 0.18
15 0.18
16 -0.14
17 0.05
18 0.27
19 0.27
2 -0.57
20 0.44
21 0.54
22 0.09
23 -0.15
24 -0.14
25 -0.15
26 0.44
27 -0.15
28 -0.15
29 0.09
3 -0.57
30 0.54
31 -0.02
32 -0.15
33 -0.15
34 -0.15
35 -0.15
36 0.01
37 0.18
4 -0.81
5 -0.57
51 0.37
52 0.15
53 0.15
56 0.15
57 0.15
58 0.37
59 0.15
6 -0.49
60 0.15
61 0.15
62 0.15
7 -0.73
8 0.59
9 -0.42

> <PUBCHEM_EFFECTIVE_ROTOR_COUNT>
9.8

> <PUBCHEM_PHARMACOPHORE_FEATURES>
11
1 2 acceptor
1 3 acceptor
1 4 cation
1 6 donor
1 7 donor
3 8 10 36 cation
5 1 5 16 17 20 rings
5 8 9 10 11 36 rings
6 12 13 14 15 16 17 rings
6 22 23 24 25 27 28 rings
6 29 31 32 33 34 35 rings

> <PUBCHEM_HEAVY_ATOM_COUNT>
37

> <PUBCHEM_ATOM_DEF_STEREO_COUNT>
1

> <PUBCHEM_ATOM_UDEF_STEREO_COUNT>
0

> <PUBCHEM_BOND_DEF_STEREO_COUNT>
0

> <PUBCHEM_BOND_UDEF_STEREO_COUNT>
0

> <PUBCHEM_ISOTOPIC_ATOM_COUNT>
0

> <PUBCHEM_COMPONENT_COUNT>
1

> <PUBCHEM_CACTVS_TAUTO_COUNT>
6

> <PUBCHEM_CONFORMER_ID>
051095FF00000001

> <PUBCHEM_MMFF94_ENERGY>
98.5445

> <PUBCHEM_FEATURE_SELFOVERLAP>
55.891

> <PUBCHEM_SHAPE_FINGERPRINT>
10100884 174 18261391118758201922
10258705 36 17826803839632787875
10556698 54 12180709298103436846
10622 236 18408889516322100332
11409948 35 18336545041140939775
11607047 403 18339353189385336528
117089 54 18409172090868311498
11761917 116 18337118857118871334
11801155 225 17109597472131034018
13008946 335 17123668433248176360
13553639 21 18337967782552860619
13947947 140 18335710446520179215
14040222 275 18264228970689974422
14344974 204 18194682562974434094
14747282 305 18335430114954114193
15264996 151 18337675325423317021
15569901 51 18409168805160814475
15803439 3 16450921871526077900
16628084 112 18337111267705502015
16728300 4 18341895203969235293
16993427 108 18342173393127022197
17324776 126 18335417920319056378
19303781 99 17750529390330053184
19841028 212 18335139790904883185
20609170 45 18335688414345747135
208703 8 18334572396002916088
21136928 87 18051122890268248832
21360442 33 18265050426561521653
21362267 20 17759516670187144794
23523787 8 16741394173419657756
23523788 1 18196061509221361152
23569943 247 18337113458339582203
24893989 43 17985841555963563150
2835820 82 18337955713989605427
46848820 9 18413103953382674863
4756088 132 18197488726758855967
50009960 94 18411976992602040551
50080093 196 17246392180396987946
6057620 51 18334303067953321886
6058803 2 18192459414666515476
6201320 221 18339067307392066991
6201320 77 17317081162205975201
6201460 15 18337676300280523398
6441014 3 18339360743277403946
9555976 147 17917725560903329233
96874 4 18410013256028541741

> <PUBCHEM_SHAPE_MULTIPOLES>
713.71
26.5
9.4
1.16
19.13
1.83
0.07
-50.58
-3.21
-5.66
-1.04
-0.36
0.42
-5.1

> <PUBCHEM_SHAPE_SELFOVERLAP>
1535.743

> <PUBCHEM_SHAPE_VOLUME>
396.5

> <PUBCHEM_COORDINATE_TYPE>
2
5
10

$$$$
84973056
  -OEChem-05102415103D

 66 70  0     1  0  0  0  0  0999 V2000
   -3.2481   -0.8516   -0.5164 S   0  0  0  0  0  0  0  0  0  0  0  0
   -3.5404    3.5601    1.0272 O   0  0  0  0  0  0  0  0  0  0  0  0
    4.2715    3.4115   -0.2858 O   0  0  0  0  0  0  0  0  0  0  0  0
   -7.4402   -4.0410   -0.3180 N   0  0  0  0  0  0  0  0  0  0  0  0
   -4.8452    0.8878    0.5517 N   0  0  0  0  0  0  0  0  0  0  0  0
   -2.5925    1.6142    0.0932 N   0  0  0  0  0  0  0  0  0  0  0  0
    2.5104    2.4000   -1.4058 N   0  0  0  0  0  0  0  0  0  0  0  0
    7.2219   -5.2232    0.7209 N   0  0  0  0  0  0  0  0  0  0  0  0
   -6.9316   -2.6722   -0.3794 C   0  0  1  0  0  0  0  0  0  0  0  0
   -7.4427   -1.8608    0.8331 C   0  0  0  0  0  0  0  0  0  0  0  0
   -5.3866   -2.6970   -0.4381 C   0  0  0  0  0  0  0  0  0  0  0  0
   -6.9840   -0.3913    0.7724 C   0  0  0  0  0  0  0  0  0  0  0  0
   -4.8466   -1.3297   -0.1816 C   0  0  0  0  0  0  0  0  0  0  0  0
   -5.5498   -0.2864    0.3869 C   0  0  0  0  0  0  0  0  0  0  0  0
   -7.0222   -4.7959   -1.4991 C   0  0  0  0  0  0  0  0  0  0  0  0
   -8.8984   -4.0407   -0.2021 C   0  0  0  0  0  0  0  0  0  0  0  0
   -3.6179    0.7062    0.1119 C   0  0  0  0  0  0  0  0  0  0  0  0
   -2.5902    2.9604    0.5357 C   0  0  0  0  0  0  0  0  0  0  0  0
   -1.3018    3.6908    0.4079 C   0  0  0  0  0  0  0  0  0  0  0  0
   -0.3837    3.3200   -0.5746 C   0  0  0  0  0  0  0  0  0  0  0  0
    0.8235    4.0079   -0.6961 C   0  0  0  0  0  0  0  0  0  0  0  0
   -1.0128    4.7496    1.2688 C   0  0  0  0  0  0  0  0  0  0  0  0
    1.8069    3.6107   -1.7451 C   0  0  0  0  0  0  0  0  0  0  0  0
    1.1128    5.0666    0.1648 C   0  0  0  0  0  0  0  0  0  0  0  0
    0.1946    5.4375    1.1472 C   0  0  0  0  0  0  0  0  0  0  0  0
    4.3161    1.0727   -0.4470 C   0  0  0  0  0  0  0  0  0  0  0  0
    3.7019    2.4027   -0.6935 C   0  0  0  0  0  0  0  0  0  0  0  0
    5.4694   -1.4248    0.0163 C   0  0  0  0  0  0  0  0  0  0  0  0
    5.6959    0.9630   -0.2733 C   0  0  0  0  0  0  0  0  0  0  0  0
    3.5131   -0.0663   -0.3891 C   0  0  0  0  0  0  0  0  0  0  0  0
    6.2724   -0.2856   -0.0417 C   0  0  0  0  0  0  0  0  0  0  0  0
    4.0898   -1.3151   -0.1575 C   0  0  0  0  0  0  0  0  0  0  0  0
    6.0675   -2.7200    0.2563 C   0  0  0  0  0  0  0  0  0  0  0  0
    7.3651   -2.9803   -0.1702 C   0  0  0  0  0  0  0  0  0  0  0  0
    5.3464   -3.7099    0.9150 C   0  0  0  0  0  0  0  0  0  0  0  0
    7.8917   -4.2364    0.0841 C   0  0  0  0  0  0  0  0  0  0  0  0
    5.9634   -4.9334    1.1209 C   0  0  0  0  0  0  0  0  0  0  0  0
   -7.3021   -2.1732   -1.2882 H   0  0  0  0  0  0  0  0  0  0  0  0
   -7.0761   -2.3166    1.7631 H   0  0  0  0  0  0  0  0  0  0  0  0
   -8.5346   -1.8263    0.8963 H   0  0  0  0  0  0  0  0  0  0  0  0
   -5.0377   -3.0344   -1.4210 H   0  0  0  0  0  0  0  0  0  0  0  0
   -4.9814   -3.3793    0.3208 H   0  0  0  0  0  0  0  0  0  0  0  0
   -7.1526    0.0882    1.7430 H   0  0  0  0  0  0  0  0  0  0  0  0
   -7.5848    0.1481    0.0301 H   0  0  0  0  0  0  0  0  0  0  0  0
   -5.9454   -4.9909   -1.5030 H   0  0  0  0  0  0  0  0  0  0  0  0
   -7.3002   -4.2969   -2.4347 H   0  0  0  0  0  0  0  0  0  0  0  0
   -7.4861   -5.7899   -1.5021 H   0  0  0  0  0  0  0  0  0  0  0  0
   -9.2289   -3.7615    0.8031 H   0  0  0  0  0  0  0  0  0  0  0  0
   -9.3821   -3.3948   -0.9440 H   0  0  0  0  0  0  0  0  0  0  0  0
   -9.2941   -5.0542   -0.3443 H   0  0  0  0  0  0  0  0  0  0  0  0
   -1.7256    1.2204   -0.2599 H   0  0  0  0  0  0  0  0  0  0  0  0
   -0.5938    2.5226   -1.2818 H   0  0  0  0  0  0  0  0  0  0  0  0
   -1.7119    5.0517    2.0441 H   0  0  0  0  0  0  0  0  0  0  0  0
    1.2908    3.4376   -2.6968 H   0  0  0  0  0  0  0  0  0  0  0  0
    2.5344    4.4111   -1.9255 H   0  0  0  0  0  0  0  0  0  0  0  0
    2.0502    5.6103    0.0833 H   0  0  0  0  0  0  0  0  0  0  0  0
    0.4206    6.2609    1.8184 H   0  0  0  0  0  0  0  0  0  0  0  0
    2.1200    1.5337   -1.7604 H   0  0  0  0  0  0  0  0  0  0  0  0
    6.3377    1.8393   -0.3132 H   0  0  0  0  0  0  0  0  0  0  0  0
    2.4330   -0.0225   -0.4925 H   0  0  0  0  0  0  0  0  0  0  0  0
    7.3470   -0.3192    0.1156 H   0  0  0  0  0  0  0  0  0  0  0  0
    3.4282   -2.1769   -0.1430 H   0  0  0  0  0  0  0  0  0  0  0  0
    7.9720   -2.2644   -0.7136 H   0  0  0  0  0  0  0  0  0  0  0  0
    4.3427   -3.5652    1.2992 H   0  0  0  0  0  0  0  0  0  0  0  0
    8.8970   -4.4925   -0.2343 H   0  0  0  0  0  0  0  0  0  0  0  0
    5.4468   -5.7366    1.6360 H   0  0  0  0  0  0  0  0  0  0  0  0
  1 13  1  0  0  0  0
  1 17  1  0  0  0  0
  2 18  2  0  0  0  0
  3 27  2  0  0  0  0
  4  9  1  0  0  0  0
  4 15  1  0  0  0  0
  4 16  1  0  0  0  0
  5 14  1  0  0  0  0
  5 17  2  0  0  0  0
  6 17  1  0  0  0  0
  6 18  1  0  0  0  0
  6 51  1  0  0  0  0
  7 23  1  0  0  0  0
  7 27  1  0  0  0  0
  7 58  1  0  0  0  0
  8 36  2  0  0  0  0
  8 37  1  0  0  0  0
  9 10  1  0  0  0  0
  9 11  1  0  0  0  0
  9 38  1  0  0  0  0
 10 12  1  0  0  0  0
 10 39  1  0  0  0  0
 10 40  1  0  0  0  0
 11 13  1  0  0  0  0
 11 41  1  0  0  0  0
 11 42  1  0  0  0  0
 12 14  1  0  0  0  0
 12 43  1  0  0  0  0
 12 44  1  0  0  0  0
 13 14  2  0  0  0  0
 15 45  1  0  0  0  0
 15 46  1  0  0  0  0
 15 47  1  0  0  0  0
 16 48  1  0  0  0  0
 16 49  1  0  0  0  0
 16 50  1  0  0  0  0
 18 19  1  0  0  0  0
 19 20  1  0  0  0  0
 19 22  2  0  0  0  0
 20 21  2  0  0  0  0
 20 52  1  0  0  0  0
 21 23  1  0  0  0  0
 21 24  1  0  0  0  0
 22 25  1  0  0  0  0
 22 53  1  0  0  0  0
 23 54  1  0  0  0  0
 23 55  1  0  0  0  0
 24 25  2  0  0  0  0
 24 56  1  0  0  0  0
 25 57  1  0  0  0  0
 26 27  1  0  0  0  0
 26 29  2  0  0  0  0
 26 30  1  0  0  0  0
 28 31  2  0  0  0  0
 28 32  1  0  0  0  0
 28 33  1  0  0  0  0
 29 31  1  0  0  0  0
 29 59  1  0  0  0  0
 30 32  2  0  0  0  0
 30 60  1  0  0  0  0
 31 61  1  0  0  0  0
 32 62  1  0  0  0  0
 33 34  2  0  0  0  0
 33 35  1  0  0  0  0
 34 36  1  0  0  0  0
 34 63  1  0  0  0  0
 35 37  2  0  0  0  0
 35 64  1  0  0  0  0
 36 65  1  0  0  0  0
 37 66  1  0  0  0  0
M  END
> <PUBCHEM_COMPOUND_CID>
84973056

> <PUBCHEM_CONFORMER_RMSD>
1

> <PUBCHEM_CONFORMER_DIVERSEORDER>
1
26
32
41
47
50
74
39
151
198
14
152
208
51
107
120
27
134
34
61
87
184
19
56
37
97
121
186
89
139
176
75
88
191
145
11
23
18
53
144
76
140
131
190
109
153
124
102
157
7
119
8
160
133
117
100
46
132
40
81
95
168
193
71
166
79
165
29
43
30
58
42
63
183
128
24
197
135
4
111
130
17
64
122
181
108
175
65
60
114
192
125
199
10
9
187
171
159
113
209
137
16
25
149
67
141
86
189
179
49
106
206
167
154
136
62
112
201
156
13
73
12
52
204
84
80
44
147
77
66
127
68
45
185
54
69
38
72
55
162
170
22
188
173
123
172
103
194
158
115
48
5
70
207
93
196
143
150
36
85
28
98
33
146
118
148
101
59
155
83
164
202
104
182
99
174
205
169
2
200
35
161
105
116
110
96
90
78
21
20
178
177
129
91
163
92
57
94
180
15
195
3
142
31
203
82
126
138
6

> <PUBCHEM_MMFF94_PARTIAL_CHARGES>
48
1 -0.08
11 0.18
12 0.18
13 -0.14
14 0.05
15 0.27
16 0.27
17 0.44
18 0.54
19 0.09
2 -0.57
20 -0.15
21 -0.14
22 -0.15
23 0.44
24 -0.15
25 -0.15
26 0.09
27 0.54
29 -0.15
3 -0.57
30 -0.15
31 -0.15
32 -0.15
34 -0.15
35 -0.15
36 0.16
37 0.16
4 -0.81
5 -0.57
51 0.37
52 0.15
53 0.15
56 0.15
57 0.15
58 0.37
59 0.15
6 -0.49
60 0.15
61 0.15
62 0.15
63 0.15
64 0.15
65 0.15
66 0.15
7 -0.73
8 -0.62
9 0.27

> <PUBCHEM_EFFECTIVE_ROTOR_COUNT>
9.8

> <PUBCHEM_PHARMACOPHORE_FEATURES>
11
1 2 acceptor
1 3 acceptor
1 4 cation
1 6 donor
1 7 donor
1 8 acceptor
5 1 5 13 14 17 rings
6 19 20 21 22 24 25 rings
6 26 28 29 30 31 32 rings
6 8 33 34 35 36 37 rings
6 9 10 11 12 13 14 rings

> <PUBCHEM_HEAVY_ATOM_COUNT>
37

> <PUBCHEM_ATOM_DEF_STEREO_COUNT>
1

> <PUBCHEM_ATOM_UDEF_STEREO_COUNT>
0

> <PUBCHEM_BOND_DEF_STEREO_COUNT>
0

> <PUBCHEM_BOND_UDEF_STEREO_COUNT>
0

> <PUBCHEM_ISOTOPIC_ATOM_COUNT>
0

> <PUBCHEM_COMPONENT_COUNT>
1

> <PUBCHEM_CACTVS_TAUTO_COUNT>
6

> <PUBCHEM_CONFORMER_ID>
0510960000000001

> <PUBCHEM_MMFF94_ENERGY>
103.4643

> <PUBCHEM_FEATURE_SELFOVERLAP>
55.891

> <PUBCHEM_SHAPE_FINGERPRINT>
10100884 174 18333730196389116322
10556698 54 12108368025733606606
10622 236 18408324358897855140
11409948 35 18264768930674957831
11607047 403 18339632469612621088
117089 54 18408327670301692690
11761917 116 18336836278361978270
11801155 225 17181936549783073450
12559416 138 18342167878294595718
13553639 21 18338249261829832699
13947947 140 18335144198042488959
14344974 204 18195810670457459438
14856354 85 17693653720258695876
15538507 19 18123185698549084426
15803439 3 16378582798337758836
16728300 4 18341894108710415765
16993427 108 18341611538369344383
17324776 126 18336544928274694226
19301676 85 18262241122634631811
19319366 153 17978237376527925972
19841028 212 18335138682840107712
208703 8 18335416820980540240
21360442 33 18266457805755775583
21362267 20 17760363298446022930
23523787 8 16813733250934605620
23523788 1 18196907033684206912
23569914 152 18124001652273225021
23569943 247 18338523040841626291
24204213 148 18334304189088018820
24893989 43 17985560081034377206
24983565 74 18409443665766141458
2835820 82 18337673143759362995
3504750 166 18266745679860140001
4017518 198 17254554894666498100
46848820 9 18341890792880605359
4756088 132 18197770201656406343
50080093 196 17319012732941329010
6057620 51 18334584551509385140
6058803 2 18193302761290889076
6201320 221 18267291196910228311
6201320 77 17389137661064198401
6201460 15 18337393738692898050
6441014 3 18339642239623241744
9555976 147 17988937621693505889

> <PUBCHEM_SHAPE_MULTIPOLES>
728.65
26.48
10.27
1.11
14.37
1.71
0.11
-53.87
-0.95
-4.63
-1.35
0.19
0.38
-5.42

> <PUBCHEM_SHAPE_SELFOVERLAP>
1575.706

> <PUBCHEM_SHAPE_VOLUME>
402

> <PUBCHEM_COORDINATE_TYPE>
2
5
10

$$$$
84973057
  -OEChem-05102415103D

 62 66  0     1  0  0  0  0  0999 V2000
   -2.7201    0.4532    0.3154 S   0  0  0  0  0  0  0  0  0  0  0  0
    6.1746    1.8830   -1.2485 S   0  0  0  0  0  0  0  0  0  0  0  0
   -2.2668   -4.1282   -0.5421 O   0  0  0  0  0  0  0  0  0  0  0  0
    5.4382   -2.3860    0.0722 O   0  0  0  0  0  0  0  0  0  0  0  0
   -7.4398    2.7805    0.0098 N   0  0  0  0  0  0  0  0  0  0  0  0
   -4.0206   -1.6872   -0.3510 N   0  0  0  0  0  0  0  0  0  0  0  0
   -1.6494   -1.9229    0.0168 N   0  0  0  0  0  0  0  0  0  0  0  0
    3.5833   -1.5434    1.1806 N   0  0  0  0  0  0  0  0  0  0  0  0
    4.2591    0.9974    0.2444 N   0  0  0  0  0  0  0  0  0  0  0  0
    2.3020    4.8066    0.3682 N   0  0  0  0  0  0  0  0  0  0  0  0
   -6.6812    1.5501    0.2260 C   0  0  1  0  0  0  0  0  0  0  0  0
   -7.0984    0.4801   -0.8087 C   0  0  0  0  0  0  0  0  0  0  0  0
   -5.1674    1.8562    0.1504 C   0  0  0  0  0  0  0  0  0  0  0  0
   -6.3700   -0.8570   -0.5744 C   0  0  0  0  0  0  0  0  0  0  0  0
   -4.3960    0.5826    0.0504 C   0  0  0  0  0  0  0  0  0  0  0  0
   -4.9221   -0.6449   -0.2996 C   0  0  0  0  0  0  0  0  0  0  0  0
   -7.1051    3.7742    1.0296 C   0  0  0  0  0  0  0  0  0  0  0  0
   -8.8763    2.5044    0.0182 C   0  0  0  0  0  0  0  0  0  0  0  0
   -2.8262   -1.2248   -0.0470 C   0  0  0  0  0  0  0  0  0  0  0  0
   -1.4198   -3.3003   -0.2243 C   0  0  0  0  0  0  0  0  0  0  0  0
   -0.0123   -3.7623   -0.1007 C   0  0  0  0  0  0  0  0  0  0  0  0
    0.8734   -3.0845    0.7370 C   0  0  0  0  0  0  0  0  0  0  0  0
    2.1943   -3.5177    0.8524 C   0  0  0  0  0  0  0  0  0  0  0  0
    0.4229   -4.8734   -0.8233 C   0  0  0  0  0  0  0  0  0  0  0  0
    3.1418   -2.7926    1.7471 C   0  0  0  0  0  0  0  0  0  0  0  0
    2.6296   -4.6288    0.1299 C   0  0  0  0  0  0  0  0  0  0  0  0
    1.7439   -5.3065   -0.7081 C   0  0  0  0  0  0  0  0  0  0  0  0
    4.7118   -1.4441    0.3784 C   0  0  0  0  0  0  0  0  0  0  0  0
    5.0482   -0.0807   -0.1061 C   0  0  0  0  0  0  0  0  0  0  0  0
    4.7579    2.0842   -0.3013 C   0  0  0  0  0  0  0  0  0  0  0  0
    6.1319    0.2020   -0.9109 C   0  0  0  0  0  0  0  0  0  0  0  0
    4.2029    3.4097   -0.1609 C   0  0  0  0  0  0  0  0  0  0  0  0
    4.9755    4.5401   -0.4030 C   0  0  0  0  0  0  0  0  0  0  0  0
    2.8834    3.5953    0.2190 C   0  0  0  0  0  0  0  0  0  0  0  0
    4.4130    5.8036   -0.2599 C   0  0  0  0  0  0  0  0  0  0  0  0
    3.0840    5.8821    0.1242 C   0  0  0  0  0  0  0  0  0  0  0  0
   -6.9001    1.1434    1.2255 H   0  0  0  0  0  0  0  0  0  0  0  0
   -6.8764    0.8407   -1.8224 H   0  0  0  0  0  0  0  0  0  0  0  0
   -8.1663    0.2438   -0.7742 H   0  0  0  0  0  0  0  0  0  0  0  0
   -4.8333    2.4009    1.0411 H   0  0  0  0  0  0  0  0  0  0  0  0
   -4.9404    2.4706   -0.7308 H   0  0  0  0  0  0  0  0  0  0  0  0
   -6.4999   -1.5059   -1.4475 H   0  0  0  0  0  0  0  0  0  0  0  0
   -6.8165   -1.3698    0.2861 H   0  0  0  0  0  0  0  0  0  0  0  0
   -7.7461    4.6585    0.9274 H   0  0  0  0  0  0  0  0  0  0  0  0
   -6.0854    4.1544    0.9147 H   0  0  0  0  0  0  0  0  0  0  0  0
   -7.2318    3.3882    2.0477 H   0  0  0  0  0  0  0  0  0  0  0  0
   -9.4463    3.4416    0.0447 H   0  0  0  0  0  0  0  0  0  0  0  0
   -9.1880    1.9086    0.8838 H   0  0  0  0  0  0  0  0  0  0  0  0
   -9.2044    2.0161   -0.9046 H   0  0  0  0  0  0  0  0  0  0  0  0
   -0.8533   -1.3315    0.2350 H   0  0  0  0  0  0  0  0  0  0  0  0
    0.5564   -2.2371    1.3382 H   0  0  0  0  0  0  0  0  0  0  0  0
   -0.2492   -5.4124   -1.4857 H   0  0  0  0  0  0  0  0  0  0  0  0
    2.6568   -2.5671    2.7039 H   0  0  0  0  0  0  0  0  0  0  0  0
    4.0166   -3.4120    1.9780 H   0  0  0  0  0  0  0  0  0  0  0  0
    3.6562   -4.9765    0.2082 H   0  0  0  0  0  0  0  0  0  0  0  0
    2.0834   -6.1704   -1.2720 H   0  0  0  0  0  0  0  0  0  0  0  0
    3.0379   -0.7085    1.3758 H   0  0  0  0  0  0  0  0  0  0  0  0
    6.8808   -0.4687   -1.3082 H   0  0  0  0  0  0  0  0  0  0  0  0
    6.0241    4.5020   -0.6814 H   0  0  0  0  0  0  0  0  0  0  0  0
    2.2213    2.7583    0.4215 H   0  0  0  0  0  0  0  0  0  0  0  0
    4.9971    6.6994   -0.4378 H   0  0  0  0  0  0  0  0  0  0  0  0
    2.5985    6.8441    0.2511 H   0  0  0  0  0  0  0  0  0  0  0  0
  1 15  1  0  0  0  0
  1 19  1  0  0  0  0
  2 30  1  0  0  0  0
  2 31  1  0  0  0  0
  3 20  2  0  0  0  0
  4 28  2  0  0  0  0
  5 11  1  0  0  0  0
  5 17  1  0  0  0  0
  5 18  1  0  0  0  0
  6 16  1  0  0  0  0
  6 19  2  0  0  0  0
  7 19  1  0  0  0  0
  7 20  1  0  0  0  0
  7 50  1  0  0  0  0
  8 25  1  0  0  0  0
  8 28  1  0  0  0  0
  8 57  1  0  0  0  0
  9 29  1  0  0  0  0
  9 30  2  0  0  0  0
 10 34  1  0  0  0  0
 10 36  2  0  0  0  0
 11 12  1  0  0  0  0
 11 13  1  0  0  0  0
 11 37  1  0  0  0  0
 12 14  1  0  0  0  0
 12 38  1  0  0  0  0
 12 39  1  0  0  0  0
 13 15  1  0  0  0  0
 13 40  1  0  0  0  0
 13 41  1  0  0  0  0
 14 16  1  0  0  0  0
 14 42  1  0  0  0  0
 14 43  1  0  0  0  0
 15 16  2  0  0  0  0
 17 44  1  0  0  0  0
 17 45  1  0  0  0  0
 17 46  1  0  0  0  0
 18 47  1  0  0  0  0
 18 48  1  0  0  0  0
 18 49  1  0  0  0  0
 20 21  1  0  0  0  0
 21 22  1  0  0  0  0
 21 24  2  0  0  0  0
 22 23  2  0  0  0  0
 22 51  1  0  0  0  0
 23 25  1  0  0  0  0
 23 26  1  0  0  0  0
 24 27  1  0  0  0  0
 24 52  1  0  0  0  0
 25 53  1  0  0  0  0
 25 54  1  0  0  0  0
 26 27  2  0  0  0  0
 26 55  1  0  0  0  0
 27 56  1  0  0  0  0
 28 29  1  0  0  0  0
 29 31  2  0  0  0  0
 30 32  1  0  0  0  0
 31 58  1  0  0  0  0
 32 33  1  0  0  0  0
 32 34  2  0  0  0  0
 33 35  2  0  0  0  0
 33 59  1  0  0  0  0
 34 60  1  0  0  0  0
 35 36  1  0  0  0  0
 35 61  1  0  0  0  0
 36 62  1  0  0  0  0
M  END
> <PUBCHEM_COMPOUND_CID>
84973057

> <PUBCHEM_CONFORMER_RMSD>
1.4

> <PUBCHEM_CONFORMER_DIVERSEORDER>
1
29
23
80
46
30
42
18
85
6
119
34
113
27
77
20
97
67
100
75
107
48
101
12
61
71
16
62
72
49
109
19
55
58
41
7
60
115
95
57
13
125
124
69
111
123
9
40
24
50
102
128
114
108
70
126
32
89
68
45
31
56
66
86
22
47
10
44
37
11
15
73
78
33
54
52
35
106
94
116
92
21
64
76
112
3
43
82
96
99
39
91
120
53
65
74
105
5
25
87
36
79
127
121
118
98
59
14
90
88
4
103
51
28
81
83
110
26
38
93
122
17
84
104
8
63
2
117

> <PUBCHEM_MMFF94_PARTIAL_CHARGES>
46
1 -0.08
10 -0.62
11 0.27
13 0.18
14 0.18
15 -0.14
16 0.05
17 0.27
18 0.27
19 0.44
2 -0.08
20 0.54
21 0.09
22 -0.15
23 -0.14
24 -0.15
25 0.44
26 -0.15
27 -0.15
28 0.72
29 0.14
3 -0.57
30 0.33
31 -0.11
32 0.05
33 -0.15
34 0.16
35 -0.15
36 0.16
4 -0.57
5 -0.81
50 0.37
51 0.15
52 0.15
55 0.15
56 0.15
57 0.37
58 0.15
59 0.15
6 -0.57
60 0.15
61 0.15
62 0.15
7 -0.49
8 -0.73
9 -0.57

> <PUBCHEM_EFFECTIVE_ROTOR_COUNT>
9.8

> <PUBCHEM_PHARMACOPHORE_FEATURES>
12
1 10 acceptor
1 3 acceptor
1 4 acceptor
1 5 cation
1 7 donor
1 8 donor
1 9 acceptor
5 1 6 15 16 19 rings
5 2 9 29 30 31 rings
6 10 32 33 34 35 36 rings
6 11 12 13 14 15 16 rings
6 21 22 23 24 26 27 rings

> <PUBCHEM_HEAVY_ATOM_COUNT>
36

> <PUBCHEM_ATOM_DEF_STEREO_COUNT>
1

> <PUBCHEM_ATOM_UDEF_STEREO_COUNT>
0

> <PUBCHEM_BOND_DEF_STEREO_COUNT>
0

> <PUBCHEM_BOND_UDEF_STEREO_COUNT>
0

> <PUBCHEM_ISOTOPIC_ATOM_COUNT>
0

> <PUBCHEM_COMPONENT_COUNT>
1

> <PUBCHEM_CACTVS_TAUTO_COUNT>
6

> <PUBCHEM_CONFORMER_ID>
0510960100000001

> <PUBCHEM_MMFF94_ENERGY>
81.3175

> <PUBCHEM_FEATURE_SELFOVERLAP>
60.967

> <PUBCHEM_SHAPE_FINGERPRINT>
10439779 11 18122331648702769800
10462674 296 17692537711064832642
10556698 54 18196388120209137222
10673678 19 18412266120957784539
10864689 126 18337963397838897316
10917259 69 18337111298245760548
11273773 38 18410855434701334098
11374522 174 18115321092843079364
11479125 193 18193000532730108417
11505856 67 18054220209585947327
11621639 336 18052259493180636996
11761917 142 17404012017468754088
11828042 163 18411146857798859348
11828042 53 17614573957524175548
12925494 130 18408041836069988859
13944108 23 18338235951572149040
14117953 113 18340488855699279870
14747282 540 18261116232302910964
14790565 3 18338516472966588218
15001296 14 18334850671060238122
15160629 57 18271240496854071725
15320291 9 17327168257393153580
15320295 198 18044090160261944549
15320467 1 18410573946845411812
15400415 2 18266176321567716445
15569901 51 17907017279521745417
15773879 134 18411975901822935029
16067689 134 18340214002913436205
19053607 189 18340475777164784666
19302320 297 18337105675078295282
20580484 21 18266459811522437893
20691028 202 18411414029542248739
21792964 463 17915202138910134507
22019808 48 18339371768538080701
23729417 116 16612798489450203319
353859 123 14812185118979789529
397830 11 18188785942491776731
4408954 64 16813747514584234210
44280116 191 18409736140644720164
4567818 161 17622719822504023665
4756261 7 17257693377329888595
4760202 170 18120924011563091037
508180 173 18339371876729376122
5109719 28 18339092531571199131
5951187 136 18342747325327956206
6036956 94 17325769678538643772
6176135 31 18337096969279851816
99344 41 18411978057210435065

> <PUBCHEM_SHAPE_MULTIPOLES>
706.94
21.59
10.18
0.97
37.01
2.91
-0.12
26.01
2.11
-12.39
0.06
-0.53
-0.38
-2.61

> <PUBCHEM_SHAPE_SELFOVERLAP>
1511.175

> <PUBCHEM_SHAPE_VOLUME>
395.7

> <PUBCHEM_COORDINATE_TYPE>
2
5
10

$$$$
84973058
  -OEChem-05102415103D

 57 61  0     1  0  0  0  0  0999 V2000
   -3.7834    1.5464    0.7109 S   0  0  0  0  0  0  0  0  0  0  0  0
    5.2009   -0.5662   -0.0215 S   0  0  0  0  0  0  0  0  0  0  0  0
   -4.1818   -2.7217   -1.1800 O   0  0  0  0  0  0  0  0  0  0  0  0
    3.5710   -2.9822    0.4345 O   0  0  0  0  0  0  0  0  0  0  0  0
   -7.0952    3.7614   -0.0764 N   0  0  2  0  0  0  0  0  0  0  0  0
   -5.4032   -0.0424   -0.5488 N   0  0  0  0  0  0  0  0  0  0  0  0
   -3.1995   -0.8929   -0.0631 N   0  0  0  0  0  0  0  0  0  0  0  0
    1.8027   -1.9934    1.5636 N   0  0  0  0  0  0  0  0  0  0  0  0
    8.3631    3.2359    0.2301 N   0  0  0  0  0  0  0  0  0  0  0  0
   -8.0529    2.6325   -0.0733 C   0  0  0  0  0  0  0  0  0  0  0  0
   -7.4613    1.3820   -0.7637 C   0  0  0  0  0  0  0  0  0  0  0  0
   -5.8813    3.4547    0.7191 C   0  0  0  0  0  0  0  0  0  0  0  0
   -6.0650    1.1414   -0.3122 C   0  0  0  0  0  0  0  0  0  0  0  0
   -5.3434    2.1129    0.3483 C   0  0  0  0  0  0  0  0  0  0  0  0
   -7.7308    4.9811    0.4202 C   0  0  0  0  0  0  0  0  0  0  0  0
   -4.1880    0.0552   -0.0500 C   0  0  0  0  0  0  0  0  0  0  0  0
   -3.2304   -2.2006   -0.6080 C   0  0  0  0  0  0  0  0  0  0  0  0
   -1.9770   -2.9909   -0.4888 C   0  0  0  0  0  0  0  0  0  0  0  0
    0.0900   -3.4745    0.6650 C   0  0  0  0  0  0  0  0  0  0  0  0
   -1.0864   -2.7333    0.5535 C   0  0  0  0  0  0  0  0  0  0  0  0
    1.0430   -3.1987    1.7785 C   0  0  0  0  0  0  0  0  0  0  0  0
   -1.6910   -3.9896   -1.4198 C   0  0  0  0  0  0  0  0  0  0  0  0
    0.3760   -4.4732   -0.2660 C   0  0  0  0  0  0  0  0  0  0  0  0
   -0.5145   -4.7305   -1.3086 C   0  0  0  0  0  0  0  0  0  0  0  0
    3.0216   -1.9869    0.8994 C   0  0  0  0  0  0  0  0  0  0  0  0
    3.6925   -0.6666    0.7830 C   0  0  0  0  0  0  0  0  0  0  0  0
    5.2932    1.1223    0.2475 C   0  0  0  0  0  0  0  0  0  0  0  0
    3.2708    0.5606    1.2456 C   0  0  0  0  0  0  0  0  0  0  0  0
    4.1980    1.5968    0.9352 C   0  0  0  0  0  0  0  0  0  0  0  0
    6.4427    1.8454   -0.2428 C   0  0  0  0  0  0  0  0  0  0  0  0
    6.7512    1.8677   -1.5984 C   0  0  0  0  0  0  0  0  0  0  0  0
    7.2729    2.5393    0.6227 C   0  0  0  0  0  0  0  0  0  0  0  0
    7.8647    2.5733   -2.0408 C   0  0  0  0  0  0  0  0  0  0  0  0
    8.6312    3.2346   -1.0949 C   0  0  0  0  0  0  0  0  0  0  0  0
   -8.9696    2.9101   -0.6080 H   0  0  0  0  0  0  0  0  0  0  0  0
   -8.3410    2.3849    0.9576 H   0  0  0  0  0  0  0  0  0  0  0  0
   -7.4580    1.5297   -1.8505 H   0  0  0  0  0  0  0  0  0  0  0  0
   -8.0876    0.5098   -0.5472 H   0  0  0  0  0  0  0  0  0  0  0  0
   -6.1107    3.4577    1.7928 H   0  0  0  0  0  0  0  0  0  0  0  0
   -5.1243    4.2250    0.5295 H   0  0  0  0  0  0  0  0  0  0  0  0
   -8.5852    5.2529   -0.2095 H   0  0  0  0  0  0  0  0  0  0  0  0
   -7.0309    5.8231    0.3803 H   0  0  0  0  0  0  0  0  0  0  0  0
   -8.0835    4.8729    1.4522 H   0  0  0  0  0  0  0  0  0  0  0  0
   -2.3333   -0.5629    0.3517 H   0  0  0  0  0  0  0  0  0  0  0  0
   -1.2965   -1.9858    1.3133 H   0  0  0  0  0  0  0  0  0  0  0  0
    0.4953   -3.0800    2.7207 H   0  0  0  0  0  0  0  0  0  0  0  0
    1.7335   -4.0383    1.9219 H   0  0  0  0  0  0  0  0  0  0  0  0
   -2.3684   -4.2026   -2.2425 H   0  0  0  0  0  0  0  0  0  0  0  0
    1.2895   -5.0572   -0.1930 H   0  0  0  0  0  0  0  0  0  0  0  0
   -0.2907   -5.5069   -2.0344 H   0  0  0  0  0  0  0  0  0  0  0  0
    1.4036   -1.1291    1.9136 H   0  0  0  0  0  0  0  0  0  0  0  0
    2.3478    0.7349    1.7825 H   0  0  0  0  0  0  0  0  0  0  0  0
    4.0597    2.6363    1.2061 H   0  0  0  0  0  0  0  0  0  0  0  0
    6.1335    1.3508   -2.3287 H   0  0  0  0  0  0  0  0  0  0  0  0
    7.0904    2.5609    1.6934 H   0  0  0  0  0  0  0  0  0  0  0  0
    8.1232    2.6065   -3.0930 H   0  0  0  0  0  0  0  0  0  0  0  0
    9.5097    3.7998   -1.3886 H   0  0  0  0  0  0  0  0  0  0  0  0
  1 14  1  0  0  0  0
  1 16  1  0  0  0  0
  2 26  1  0  0  0  0
  2 27  1  0  0  0  0
  3 17  2  0  0  0  0
  4 25  2  0  0  0  0
  5 10  1  0  0  0  0
  5 12  1  0  0  0  0
  5 15  1  0  0  0  0
  6 13  1  0  0  0  0
  6 16  2  0  0  0  0
  7 16  1  0  0  0  0
  7 17  1  0  0  0  0
  7 44  1  0  0  0  0
  8 21  1  0  0  0  0
  8 25  1  0  0  0  0
  8 51  1  0  0  0  0
  9 32  1  0  0  0  0
  9 34  2  0  0  0  0
 10 11  1  0  0  0  0
 10 35  1  0  0  0  0
 10 36  1  0  0  0  0
 11 13  1  0  0  0  0
 11 37  1  0  0  0  0
 11 38  1  0  0  0  0
 12 14  1  0  0  0  0
 12 39  1  0  0  0  0
 12 40  1  0  0  0  0
 13 14  2  0  0  0  0
 15 41  1  0  0  0  0
 15 42  1  0  0  0  0
 15 43  1  0  0  0  0
 17 18  1  0  0  0  0
 18 20  1  0  0  0  0
 18 22  2  0  0  0  0
 19 20  2  0  0  0  0
 19 21  1  0  0  0  0
 19 23  1  0  0  0  0
 20 45  1  0  0  0  0
 21 46  1  0  0  0  0
 21 47  1  0  0  0  0
 22 24  1  0  0  0  0
 22 48  1  0  0  0  0
 23 24  2  0  0  0  0
 23 49  1  0  0  0  0
 24 50  1  0  0  0  0
 25 26  1  0  0  0  0
 26 28  2  0  0  0  0
 27 29  2  0  0  0  0
 27 30  1  0  0  0  0
 28 29  1  0  0  0  0
 28 52  1  0  0  0  0
 29 53  1  0  0  0  0
 30 31  1  0  0  0  0
 30 32  2  0  0  0  0
 31 33  2  0  0  0  0
 31 54  1  0  0  0  0
 32 55  1  0  0  0  0
 33 34  1  0  0  0  0
 33 56  1  0  0  0  0
 34 57  1  0  0  0  0
M  END
> <PUBCHEM_COMPOUND_CID>
84973058

> <PUBCHEM_CONFORMER_RMSD>
1.2

> <PUBCHEM_CONFORMER_DIVERSEORDER>
2
33
111
139
107
201
41
126
48
65
129
149
26
86
82
96
84
42
62
56
204
87
12
36
100
64
186
15
50
164
167
134
105
102
63
114
43
35
76
144
49
92
115
104
57
121
20
117
10
8
30
79
81
88
21
140
89
138
133
109
179
90
112
24
93
39
113
99
46
187
55
110
163
77
175
132
120
130
198
136
68
78
44
162
197
53
54
31
101
154
177
72
135
103
97
58
80
196
185
38
66
22
51
18
47
95
192
161
202
83
128
165
11
25
200
75
159
171
205
158
194
61
59
168
98
152
156
142
45
69
183
127
169
157
14
170
181
29
131
178
143
145
74
27
195
125
34
32
119
199
6
40
153
203
17
190
1
23
91
184
123
173
147
189
176
37
155
94
9
151
137
4
19
52
7
193
108
191
160
3
16
67
122
106
172
28
146
174
13
166
85
124
148
150
141
71
70
73
60
5
118
180
116
182
188

> <PUBCHEM_MMFF94_PARTIAL_CHARGES>
46
1 -0.08
10 0.27
11 0.18
12 0.45
13 0.05
14 -0.14
15 0.27
16 0.44
17 0.54
18 0.09
19 -0.14
2 -0.08
20 -0.15
21 0.44
22 -0.15
23 -0.15
24 -0.15
25 0.71
26 -0.05
27 -0.01
28 -0.15
29 -0.15
3 -0.57
30 0.05
31 -0.15
32 0.16
33 -0.15
34 0.16
4 -0.57
44 0.37
45 0.15
48 0.15
49 0.15
5 -0.81
50 0.15
51 0.37
52 0.15
53 0.15
54 0.15
55 0.15
56 0.15
57 0.15
6 -0.57
7 -0.49
8 -0.73
9 -0.62

> <PUBCHEM_EFFECTIVE_ROTOR_COUNT>
8.8

> <PUBCHEM_PHARMACOPHORE_FEATURES>
11
1 3 acceptor
1 4 acceptor
1 5 cation
1 7 donor
1 8 donor
1 9 acceptor
5 1 6 13 14 16 rings
5 2 26 27 28 29 rings
6 18 19 20 22 23 24 rings
6 5 10 11 12 13 14 rings
6 9 30 31 32 33 34 rings

> <PUBCHEM_HEAVY_ATOM_COUNT>
34

> <PUBCHEM_ATOM_DEF_STEREO_COUNT>
0

> <PUBCHEM_ATOM_UDEF_STEREO_COUNT>
0

> <PUBCHEM_BOND_DEF_STEREO_COUNT>
0

> <PUBCHEM_BOND_UDEF_STEREO_COUNT>
0

> <PUBCHEM_ISOTOPIC_ATOM_COUNT>
0

> <PUBCHEM_COMPONENT_COUNT>
1

> <PUBCHEM_CACTVS_TAUTO_COUNT>
6

> <PUBCHEM_CONFORMER_ID>
0510960200000002

> <PUBCHEM_MMFF94_ENERGY>
79.1169

> <PUBCHEM_FEATURE_SELFOVERLAP>
55.893

> <PUBCHEM_SHAPE_FINGERPRINT>
10533779 1 18261659454801998372
10673678 19 18199464377534430707
10864689 126 18343299284444567440
10917259 128 18267568274236021392
10917259 69 18410575103140998424
11200772 48 18339928228842838776
11374522 174 18337961090908930221
11374522 72 18042117683757169749
11410812 94 18197217161031079200
11476731 99 18054502780270078336
11828042 163 18339648833463482678
11828042 200 18125704924724041047
1200032 147 18113899364652744808
12013929 112 18337690654852063836
12061779 8 18114178662044619448
12124843 1 17988923344895185501
13944108 23 18053662469347669107
14026016 13 18411986841120637201
14150022 121 17605845939315955307
14251764 75 18409445856278135155
14664723 55 18334862722891718092
14931854 50 17989209235103376080
15064981 113 17418100906026445214
15064981 194 17899979631529662031
15150948 74 18409441488297096668
15198563 99 17840854489733107351
15406563 185 16630235910473426089
155225 6 18338517431023447993
15685185 35 18335418015176926293
15803439 3 17203330035191983846
16067689 134 18261964037277917612
16120349 67 18335987575106446426
16992727 255 18410295852488024264
16993089 31 13110095670391359901
16993427 108 8790879670877308455
17899979 129 18339365154166755442
18339144 43 17197717909212505177
19053607 189 18340756092231189752
19304671 126 18272942583491792596
20691028 202 18409445886237183722
20766409 102 18411418407248248693
21133410 127 18189333476805519413
21223535 225 18200587137830255020
21774942 28 18337953515419608396
23516275 100 17190640794549686257
23522609 53 17750797839214183044
23569914 152 17843140125767973206
23569943 247 9511166475039975277
24771750 20 18130793325848481007
25025965 108 13325202922494908332
3388396 114 16897368109833153300
397830 11 8285936619071829366
406291 66 10303814280562543492
42767 28 17917430968901499944
4366758 26 18267587897156132297
437795 171 18116705210420955621
4760202 70 18271513214887968237
5265222 85 18413388756937096649
5718773 13 10159701291646592986
57634706 229 17604155951589680610
5776283 40 18341610468606464465
6036956 94 18269278950656197377
6058803 2 18192684865525425090
6673363 416 18050851310274085447

> <PUBCHEM_SHAPE_MULTIPOLES>
670.76
27.21
7.64
1.4
8.9
3.23
0.19
-51.51
6.53
-5.34
1.05
1.79
0.4
-4.14

> <PUBCHEM_SHAPE_SELFOVERLAP>
1439.235

> <PUBCHEM_SHAPE_VOLUME>
372.5

> <PUBCHEM_COORDINATE_TYPE>
2
5
10

$$$$
56599751
  -OEChem-05102415103D

 57 61  0     1  0  0  0  0  0999 V2000
   -3.0584    1.3490    0.5160 S   0  0  0  0  0  0  0  0  0  0  0  0
    3.6827    0.3633    0.5242 S   0  0  0  0  0  0  0  0  0  0  0  0
   -3.7917   -3.1311   -0.6429 O   0  0  0  0  0  0  0  0  0  0  0  0
    4.0984   -3.4662    0.0001 O   0  0  0  0  0  0  0  0  0  0  0  0
   -6.3969    3.5569   -0.1721 N   0  0  2  0  0  0  0  0  0  0  0  0
   -4.8626   -0.3406   -0.2745 N   0  0  0  0  0  0  0  0  0  0  0  0
   -2.6329   -1.1994    0.0518 N   0  0  0  0  0  0  0  0  0  0  0  0
    2.5146   -2.2511    1.1811 N   0  0  0  0  0  0  0  0  0  0  0  0
    4.9237    5.4710   -0.0216 N   0  0  0  0  0  0  0  0  0  0  0  0
   -7.3697    2.4805    0.1224 C   0  0  0  0  0  0  0  0  0  0  0  0
   -6.9004    1.1191   -0.4404 C   0  0  0  0  0  0  0  0  0  0  0  0
   -5.0960    3.3214    0.5008 C   0  0  0  0  0  0  0  0  0  0  0  0
   -5.4624    0.8910   -0.1377 C   0  0  0  0  0  0  0  0  0  0  0  0
   -4.6400    1.9189    0.2720 C   0  0  0  0  0  0  0  0  0  0  0  0
   -6.9359    4.8611    0.2108 C   0  0  0  0  0  0  0  0  0  0  0  0
   -3.5908   -0.2202    0.0464 C   0  0  0  0  0  0  0  0  0  0  0  0
   -2.7628   -2.5706   -0.2810 C   0  0  0  0  0  0  0  0  0  0  0  0
   -1.5216   -3.3851   -0.2031 C   0  0  0  0  0  0  0  0  0  0  0  0
    0.6679   -3.7774    0.7401 C   0  0  0  0  0  0  0  0  0  0  0  0
   -0.4969   -3.0135    0.6674 C   0  0  0  0  0  0  0  0  0  0  0  0
    1.7642   -3.3799    1.6698 C   0  0  0  0  0  0  0  0  0  0  0  0
   -1.3813   -4.5205   -1.0011 C   0  0  0  0  0  0  0  0  0  0  0  0
    0.8082   -4.9129   -0.0579 C   0  0  0  0  0  0  0  0  0  0  0  0
   -0.2164   -5.2843   -0.9288 C   0  0  0  0  0  0  0  0  0  0  0  0
    3.6360   -2.3919    0.3750 C   0  0  0  0  0  0  0  0  0  0  0  0
    4.3138   -1.1314   -0.0233 C   0  0  0  0  0  0  0  0  0  0  0  0
    4.9085    1.2403   -0.2884 C   0  0  0  0  0  0  0  0  0  0  0  0
    5.4336   -0.9634   -0.8079 C   0  0  0  0  0  0  0  0  0  0  0  0
    5.7781    0.4105   -0.9614 C   0  0  0  0  0  0  0  0  0  0  0  0
    4.9133    2.6812   -0.1969 C   0  0  0  0  0  0  0  0  0  0  0  0
    6.0087    3.3423    0.3477 C   0  0  0  0  0  0  0  0  0  0  0  0
    3.8231    3.4134   -0.6540 C   0  0  0  0  0  0  0  0  0  0  0  0
    5.9649    4.7257    0.4121 C   0  0  0  0  0  0  0  0  0  0  0  0
    3.8772    4.7937   -0.5448 C   0  0  0  0  0  0  0  0  0  0  0  0
   -7.5255    2.3992    1.2069 H   0  0  0  0  0  0  0  0  0  0  0  0
   -8.3424    2.7136   -0.3280 H   0  0  0  0  0  0  0  0  0  0  0  0
   -7.0363    1.1052   -1.5286 H   0  0  0  0  0  0  0  0  0  0  0  0
   -7.5113    0.3144   -0.0173 H   0  0  0  0  0  0  0  0  0  0  0  0
   -5.1827    3.4915    1.5820 H   0  0  0  0  0  0  0  0  0  0  0  0
   -4.3542    4.0240    0.1030 H   0  0  0  0  0  0  0  0  0  0  0  0
   -7.8594    5.0719   -0.3396 H   0  0  0  0  0  0  0  0  0  0  0  0
   -6.2295    5.6590   -0.0438 H   0  0  0  0  0  0  0  0  0  0  0  0
   -7.1526    4.9203    1.2835 H   0  0  0  0  0  0  0  0  0  0  0  0
   -1.7130   -0.8475    0.2993 H   0  0  0  0  0  0  0  0  0  0  0  0
   -0.5897   -2.1544    1.3259 H   0  0  0  0  0  0  0  0  0  0  0  0
    1.3472   -3.1011    2.6445 H   0  0  0  0  0  0  0  0  0  0  0  0
    2.4494   -4.2166    1.8504 H   0  0  0  0  0  0  0  0  0  0  0  0
   -2.1651   -4.8246   -1.6899 H   0  0  0  0  0  0  0  0  0  0  0  0
    1.7108   -5.5165   -0.0136 H   0  0  0  0  0  0  0  0  0  0  0  0
   -0.1062   -6.1674   -1.5514 H   0  0  0  0  0  0  0  0  0  0  0  0
    2.1987   -1.3200    1.4371 H   0  0  0  0  0  0  0  0  0  0  0  0
    5.9844   -1.7818   -1.2541 H   0  0  0  0  0  0  0  0  0  0  0  0
    6.6229    0.7634   -1.5401 H   0  0  0  0  0  0  0  0  0  0  0  0
    6.8778    2.8080    0.7178 H   0  0  0  0  0  0  0  0  0  0  0  0
    2.9508    2.9417   -1.0952 H   0  0  0  0  0  0  0  0  0  0  0  0
    6.7936    5.2888    0.8287 H   0  0  0  0  0  0  0  0  0  0  0  0
    3.0537    5.4108   -0.8889 H   0  0  0  0  0  0  0  0  0  0  0  0
  1 14  1  0  0  0  0
  1 16  1  0  0  0  0
  2 26  1  0  0  0  0
  2 27  1  0  0  0  0
  3 17  2  0  0  0  0
  4 25  2  0  0  0  0
  5 10  1  0  0  0  0
  5 12  1  0  0  0  0
  5 15  1  0  0  0  0
  6 13  1  0  0  0  0
  6 16  2  0  0  0  0
  7 16  1  0  0  0  0
  7 17  1  0  0  0  0
  7 44  1  0  0  0  0
  8 21  1  0  0  0  0
  8 25  1  0  0  0  0
  8 51  1  0  0  0  0
  9 33  2  0  0  0  0
  9 34  1  0  0  0  0
 10 11  1  0  0  0  0
 10 35  1  0  0  0  0
 10 36  1  0  0  0  0
 11 13  1  0  0  0  0
 11 37  1  0  0  0  0
 11 38  1  0  0  0  0
 12 14  1  0  0  0  0
 12 39  1  0  0  0  0
 12 40  1  0  0  0  0
 13 14  2  0  0  0  0
 15 41  1  0  0  0  0
 15 42  1  0  0  0  0
 15 43  1  0  0  0  0
 17 18  1  0  0  0  0
 18 20  1  0  0  0  0
 18 22  2  0  0  0  0
 19 20  2  0  0  0  0
 19 21  1  0  0  0  0
 19 23  1  0  0  0  0
 20 45  1  0  0  0  0
 21 46  1  0  0  0  0
 21 47  1  0  0  0  0
 22 24  1  0  0  0  0
 22 48  1  0  0  0  0
 23 24  2  0  0  0  0
 23 49  1  0  0  0  0
 24 50  1  0  0  0  0
 25 26  1  0  0  0  0
 26 28  2  0  0  0  0
 27 29  2  0  0  0  0
 27 30  1  0  0  0  0
 28 29  1  0  0  0  0
 28 52  1  0  0  0  0
 29 53  1  0  0  0  0
 30 31  2  0  0  0  0
 30 32  1  0  0  0  0
 31 33  1  0  0  0  0
 31 54  1  0  0  0  0
 32 34  2  0  0  0  0
 32 55  1  0  0  0  0
 33 56  1  0  0  0  0
 34 57  1  0  0  0  0
M  END
> <PUBCHEM_COMPOUND_CID>
56599751

> <PUBCHEM_CONFORMER_RMSD>
1.2

> <PUBCHEM_CONFORMER_DIVERSEORDER>
1
42
68
70
63
44
147
105
169
52
113
38
179
7
107
84
82
109
12
106
133
138
176
74
21
91
64
11
110
32
123
75
34
132
54
28
43
26
126
80
94
158
95
4
67
49
99
121
157
58
103
122
182
102
154
97
40
23
8
96
62
115
170
134
29
143
36
72
45
149
6
178
31
104
167
108
120
39
165
15
92
101
114
57
146
37
56
125
88
66
55
77
140
152
141
76
79
145
51
86
129
14
111
27
30
35
90
137
73
135
142
161
100
174
48
181
118
171
130
60
46
50
173
144
83
159
3
89
119
153
151
71
156
116
9
59
18
65
78
180
164
25
69
53
16
19
61
172
93
81
168
98
131
22
148
112
124
2
139
136
150
160
175
85
117
127
177
24
163
87
17
162
47
10
41
166
5
13
128
20
155
33

> <PUBCHEM_MMFF94_PARTIAL_CHARGES>
46
1 -0.08
10 0.27
11 0.18
12 0.45
13 0.05
14 -0.14
15 0.27
16 0.44
17 0.54
18 0.09
19 -0.14
2 -0.08
20 -0.15
21 0.44
22 -0.15
23 -0.15
24 -0.15
25 0.71
26 -0.05
27 -0.01
28 -0.15
29 -0.15
3 -0.57
30 0.05
31 -0.15
32 -0.15
33 0.16
34 0.16
4 -0.57
44 0.37
45 0.15
48 0.15
49 0.15
5 -0.81
50 0.15
51 0.37
52 0.15
53 0.15
54 0.15
55 0.15
56 0.15
57 0.15
6 -0.57
7 -0.49
8 -0.73
9 -0.62

> <PUBCHEM_EFFECTIVE_ROTOR_COUNT>
8.8

> <PUBCHEM_PHARMACOPHORE_FEATURES>
11
1 3 acceptor
1 4 acceptor
1 5 cation
1 7 donor
1 8 donor
1 9 acceptor
5 1 6 13 14 16 rings
5 2 26 27 28 29 rings
6 18 19 20 22 23 24 rings
6 5 10 11 12 13 14 rings
6 9 30 31 32 33 34 rings

> <PUBCHEM_HEAVY_ATOM_COUNT>
34

> <PUBCHEM_ATOM_DEF_STEREO_COUNT>
0

> <PUBCHEM_ATOM_UDEF_STEREO_COUNT>
0

> <PUBCHEM_BOND_DEF_STEREO_COUNT>
0

> <PUBCHEM_BOND_UDEF_STEREO_COUNT>
0

> <PUBCHEM_ISOTOPIC_ATOM_COUNT>
0

> <PUBCHEM_COMPONENT_COUNT>
1

> <PUBCHEM_CACTVS_TAUTO_COUNT>
6

> <PUBCHEM_CONFORMER_ID>
035FA4C700000001

> <PUBCHEM_MMFF94_ENERGY>
79.3079

> <PUBCHEM_FEATURE_SELFOVERLAP>
55.893

> <PUBCHEM_SHAPE_FINGERPRINT>
10439779 11 18120926472537029952
10462674 296 17548984351881989898
10673678 19 18339928108742224291
10675989 125 18409729517709730384
10864689 126 18410303501829852028
10917259 69 18409731807840214164
10951579 204 17688325890658915012
11273773 38 18338797788844275682
11374522 165 18054219110976029296
11374522 174 18188508915998859180
11479125 193 18337398231054429065
11505856 67 18270109253670757911
11761917 142 17908414007481896744
11828042 163 18411709773334292620
11828042 53 17903649819552553604
12559415 180 18337101380291230460
13944108 23 18051131397706593355
13974486 27 15744178406168425140
14251764 75 18410293609955608115
14429114 114 18338232798844672714
14747282 540 18118130165285237332
14790565 3 18410575093432978699
15001296 14 18335416850807973587
15198563 99 17983010339392999111
15320291 9 17758673738823456332
15320295 198 17829329086780562933
15400415 2 18410855494499424085
155225 5 17834114530582506136
15773879 134 18339918230549702109
15968369 153 17686918510688745338
15979999 66 17407123157911628718
16067689 134 17693952799589239601
16708801 149 17610900476162902404
16728433 281 17828493797520709124
19053607 189 18268699675521203280
19302320 297 18265050232497183826
20580484 21 18050569535146062093
21223535 225 18341053021212641174
21792965 106 17832990826101160960
23576562 1 18056760932060845775
241686 156 18335427863083723236
245318 6 18187943750042207719
3388396 114 17621586646294197894
44280116 191 18265624190942589500
4487111 67 18051414264616860752
4756261 7 17691447347744577659
5109719 28 18266754506349339721
5265222 85 18341048614428794417
53794403 172 18267584607284594511
550186 72 17330555861508082966
57366028 249 17975688391660167621
5951187 136 18343027644816110870
6036956 94 17685780524406023292
6176135 31 18409156710753935536
636783 164 17911492584938636960
99344 41 18410852183527947504

> <PUBCHEM_SHAPE_MULTIPOLES>
670.76
19.86
10.18
0.95
16
0.44
-0.11
32.96
1.38
-4.22
0.46
-0.48
-0.61
-1.52

> <PUBCHEM_SHAPE_SELFOVERLAP>
1439.572

> <PUBCHEM_SHAPE_VOLUME>
372.4

> <PUBCHEM_COORDINATE_TYPE>
2
5
10

$$$$
56599753
  -OEChem-05102415103D

 54 58  0     1  0  0  0  0  0999 V2000
   -3.5862    1.4791    0.6900 S   0  0  0  0  0  0  0  0  0  0  0  0
    5.4804   -0.2174   -0.1056 S   0  0  0  0  0  0  0  0  0  0  0  0
   -3.8004   -2.8327   -1.1303 O   0  0  0  0  0  0  0  0  0  0  0  0
    3.9717   -2.7004    0.4051 O   0  0  0  0  0  0  0  0  0  0  0  0
    7.6289    1.7550   -1.0303 O   0  0  0  0  0  0  0  0  0  0  0  0
   -7.0071    3.5221   -0.0961 N   0  0  2  0  0  0  0  0  0  0  0  0
   -5.1412   -0.2044   -0.5276 N   0  0  0  0  0  0  0  0  0  0  0  0
   -2.8949   -0.9419   -0.0524 N   0  0  0  0  0  0  0  0  0  0  0  0
    2.1698   -1.7784    1.5376 N   0  0  0  0  0  0  0  0  0  0  0  0
    7.9185    3.9917   -0.8629 N   0  0  0  0  0  0  0  0  0  0  0  0
   -7.9101    2.3494   -0.0653 C   0  0  0  0  0  0  0  0  0  0  0  0
   -7.2667    1.1174   -0.7426 C   0  0  0  0  0  0  0  0  0  0  0  0
   -5.7721    3.2860    0.6911 C   0  0  0  0  0  0  0  0  0  0  0  0
   -5.8561    0.9504   -0.3023 C   0  0  0  0  0  0  0  0  0  0  0  0
   -5.1749    1.9653    0.3354 C   0  0  0  0  0  0  0  0  0  0  0  0
   -7.6949    4.7181    0.3884 C   0  0  0  0  0  0  0  0  0  0  0  0
   -3.9271   -0.0415   -0.0434 C   0  0  0  0  0  0  0  0  0  0  0  0
   -2.8692   -2.2581   -0.5767 C   0  0  0  0  0  0  0  0  0  0  0  0
   -1.5785   -2.9862   -0.4586 C   0  0  0  0  0  0  0  0  0  0  0  0
    0.5205   -3.3530    0.6803 C   0  0  0  0  0  0  0  0  0  0  0  0
   -0.6908   -2.6702    0.5699 C   0  0  0  0  0  0  0  0  0  0  0  0
    1.4703   -3.0148    1.7792 C   0  0  0  0  0  0  0  0  0  0  0  0
   -1.2547   -3.9850   -1.3771 C   0  0  0  0  0  0  0  0  0  0  0  0
    0.8443   -4.3518   -0.2381 C   0  0  0  0  0  0  0  0  0  0  0  0
   -0.0433   -4.6676   -1.2670 C   0  0  0  0  0  0  0  0  0  0  0  0
    3.3804   -1.7249    0.8604 C   0  0  0  0  0  0  0  0  0  0  0  0
    3.9867   -0.3763    0.7164 C   0  0  0  0  0  0  0  0  0  0  0  0
    5.4950    1.4776    0.1362 C   0  0  0  0  0  0  0  0  0  0  0  0
    3.5117    0.8366    1.1645 C   0  0  0  0  0  0  0  0  0  0  0  0
    4.3855    1.9106    0.8282 C   0  0  0  0  0  0  0  0  0  0  0  0
    6.5657    2.2701   -0.3524 C   0  0  0  0  0  0  0  0  0  0  0  0
    6.7454    3.6274   -0.2530 C   0  0  0  0  0  0  0  0  0  0  0  0
    8.3936    2.8479   -1.3012 C   0  0  0  0  0  0  0  0  0  0  0  0
   -8.1759    2.1050    0.9724 H   0  0  0  0  0  0  0  0  0  0  0  0
   -8.8441    2.5748   -0.5944 H   0  0  0  0  0  0  0  0  0  0  0  0
   -7.2812    1.2477   -1.8314 H   0  0  0  0  0  0  0  0  0  0  0  0
   -7.8486    0.2201   -0.5059 H   0  0  0  0  0  0  0  0  0  0  0  0
   -5.9908    3.2952    1.7670 H   0  0  0  0  0  0  0  0  0  0  0  0
   -5.0545    4.0880    0.4816 H   0  0  0  0  0  0  0  0  0  0  0  0
   -8.5674    4.9391   -0.2362 H   0  0  0  0  0  0  0  0  0  0  0  0
   -7.0362    5.5916    0.3280 H   0  0  0  0  0  0  0  0  0  0  0  0
   -8.0318    4.6099    1.4256 H   0  0  0  0  0  0  0  0  0  0  0  0
   -2.0412   -0.5647    0.3480 H   0  0  0  0  0  0  0  0  0  0  0  0
   -0.9286   -1.9215    1.3203 H   0  0  0  0  0  0  0  0  0  0  0  0
    0.9270   -2.9070    2.7253 H   0  0  0  0  0  0  0  0  0  0  0  0
    2.2013   -3.8184    1.9282 H   0  0  0  0  0  0  0  0  0  0  0  0
   -1.9294   -4.2430   -2.1891 H   0  0  0  0  0  0  0  0  0  0  0  0
    1.7852   -4.8908   -0.1659 H   0  0  0  0  0  0  0  0  0  0  0  0
    0.2098   -5.4440   -1.9831 H   0  0  0  0  0  0  0  0  0  0  0  0
    1.7336   -0.9286    1.8785 H   0  0  0  0  0  0  0  0  0  0  0  0
    2.5870    0.9755    1.7088 H   0  0  0  0  0  0  0  0  0  0  0  0
    4.1924    2.9436    1.0901 H   0  0  0  0  0  0  0  0  0  0  0  0
    6.1092    4.3641    0.2161 H   0  0  0  0  0  0  0  0  0  0  0  0
    9.3092    2.6720   -1.8455 H   0  0  0  0  0  0  0  0  0  0  0  0
  1 15  1  0  0  0  0
  1 17  1  0  0  0  0
  2 27  1  0  0  0  0
  2 28  1  0  0  0  0
  3 18  2  0  0  0  0
  4 26  2  0  0  0  0
  5 31  1  0  0  0  0
  5 33  1  0  0  0  0
  6 11  1  0  0  0  0
  6 13  1  0  0  0  0
  6 16  1  0  0  0  0
  7 14  1  0  0  0  0
  7 17  2  0  0  0  0
  8 17  1  0  0  0  0
  8 18  1  0  0  0  0
  8 43  1  0  0  0  0
  9 22  1  0  0  0  0
  9 26  1  0  0  0  0
  9 50  1  0  0  0  0
 10 32  1  0  0  0  0
 10 33  2  0  0  0  0
 11 12  1  0  0  0  0
 11 34  1  0  0  0  0
 11 35  1  0  0  0  0
 12 14  1  0  0  0  0
 12 36  1  0  0  0  0
 12 37  1  0  0  0  0
 13 15  1  0  0  0  0
 13 38  1  0  0  0  0
 13 39  1  0  0  0  0
 14 15  2  0  0  0  0
 16 40  1  0  0  0  0
 16 41  1  0  0  0  0
 16 42  1  0  0  0  0
 18 19  1  0  0  0  0
 19 21  1  0  0  0  0
 19 23  2  0  0  0  0
 20 21  2  0  0  0  0
 20 22  1  0  0  0  0
 20 24  1  0  0  0  0
 21 44  1  0  0  0  0
 22 45  1  0  0  0  0
 22 46  1  0  0  0  0
 23 25  1  0  0  0  0
 23 47  1  0  0  0  0
 24 25  2  0  0  0  0
 24 48  1  0  0  0  0
 25 49  1  0  0  0  0
 26 27  1  0  0  0  0
 27 29  2  0  0  0  0
 28 30  2  0  0  0  0
 28 31  1  0  0  0  0
 29 30  1  0  0  0  0
 29 51  1  0  0  0  0
 30 52  1  0  0  0  0
 31 32  2  0  0  0  0
 32 53  1  0  0  0  0
 33 54  1  0  0  0  0
M  END
> <PUBCHEM_COMPOUND_CID>
56599753

> <PUBCHEM_CONFORMER_RMSD>
1.2

> <PUBCHEM_CONFORMER_DIVERSEORDER>
2
17
49
123
37
76
95
164
6
34
55
159
82
86
93
141
94
26
40
80
154
153
90
72
36
79
64
66
63
61
60
127
32
161
57
121
43
78
92
149
56
52
68
98
110
117
91
45
39
46
50
84
65
38
112
111
104
85
58
109
148
87
30
69
71
10
42
13
130
35
99
135
137
31
83
89
143
47
15
48
132
140
116
133
114
21
100
22
4
54
81
33
146
70
138
19
24
162
7
115
160
158
11
88
126
147
97
44
166
51
136
27
9
1
106
73
12
18
8
96
74
122
165
14
29
134
131
151
62
168
169
16
20
120
119
142
145
101
167
163
108
113
75
128
77
105
107
157
102
23
156
41
139
150
3
59
124
129
144
5
67
125
28
152
103
53
170
155
118
25

> <PUBCHEM_MMFF94_PARTIAL_CHARGES>
43
1 -0.08
10 -0.57
11 0.27
12 0.18
13 0.45
14 0.05
15 -0.14
16 0.27
17 0.44
18 0.54
19 0.09
2 -0.08
20 -0.14
21 -0.15
22 0.44
23 -0.15
24 -0.15
25 -0.15
26 0.71
27 -0.05
28 0.04
29 -0.15
3 -0.57
30 -0.15
31 0.14
32 0.08
33 0.33
4 -0.57
43 0.37
44 0.15
47 0.15
48 0.15
49 0.15
5 -0.28
50 0.37
51 0.15
52 0.15
53 0.15
54 0.15
6 -0.81
7 -0.57
8 -0.49
9 -0.73

> <PUBCHEM_EFFECTIVE_ROTOR_COUNT>
8.8

> <PUBCHEM_PHARMACOPHORE_FEATURES>
10
1 3 acceptor
1 4 acceptor
1 6 cation
1 8 donor
1 9 donor
5 1 7 14 15 17 rings
5 2 27 28 29 30 rings
5 5 10 31 32 33 rings
6 19 20 21 23 24 25 rings
6 6 11 12 13 14 15 rings

> <PUBCHEM_HEAVY_ATOM_COUNT>
33

> <PUBCHEM_ATOM_DEF_STEREO_COUNT>
0

> <PUBCHEM_ATOM_UDEF_STEREO_COUNT>
0

> <PUBCHEM_BOND_DEF_STEREO_COUNT>
0

> <PUBCHEM_BOND_UDEF_STEREO_COUNT>
0

> <PUBCHEM_ISOTOPIC_ATOM_COUNT>
0

> <PUBCHEM_COMPONENT_COUNT>
1

> <PUBCHEM_CACTVS_TAUTO_COUNT>
6

> <PUBCHEM_CONFORMER_ID>
035FA4C900000002

> <PUBCHEM_MMFF94_ENERGY>
60.8107

> <PUBCHEM_FEATURE_SELFOVERLAP>
50.818

> <PUBCHEM_SHAPE_FINGERPRINT>
10258705 36 11454161876648963317
10673678 19 18271241604586388579
10864689 126 18343580772390653992
10917259 128 18195229235333873504
10917259 69 18410013261331493388
11374522 174 18409456851516213221
11374522 72 18114171987802669693
11410812 94 18196656418727894780
11476731 99 18055065730255141712
11505856 67 18268137824974492431
11828042 163 18339368470936341620
11828042 200 18125706032757057615
1200032 147 18113336419068208736
12061779 8 18040995194049176024
12124843 1 18060701675738011725
13944108 23 18125438605393550792
14026016 13 18412267233702357241
14251764 75 18409164398428357738
14394314 77 18261393372945898117
14664723 55 18342464698782979968
14931854 50 17988927768885431048
15064981 113 17489879232779837550
15064981 194 17827361291062212014
15198563 99 17768798007975645055
155225 6 18410293562864150041
15803439 3 17131835399787024150
16067689 134 18335145327878084924
16992727 255 18338520845886731056
16993089 31 13182155467705267205
16993427 108 8430312424649830599
17899979 129 18339083692248877074
18339144 43 17341272367843587737
19053607 189 18412252944034524408
19302320 297 18193552268519001962
20691028 202 18409726287899461736
20766409 102 18410855482995897005
21133410 127 18189053101229744725
21133410 62 18336275595407023699
21796203 349 15430319187520114254
23516275 100 17046807098567152185
23523788 1 8861798076596502134
23569914 152 17914917357278285774
23569943 247 9655283857786071173
245318 6 18334867090962816975
3388396 114 16825310528790988012
397830 11 18192724350408497107
42767 28 17988925617281090800
4366758 26 18408045125678340884
4760202 70 18271513227762210157
50009960 94 8502364521588731569
5265222 85 18341331188537246633
53794403 172 18197496225708210551
57634706 229 17532096167197449066
5776283 40 18341891960652306993
6036956 94 18268996389063362249
6058803 2 18192966357898224290
6201320 77 12389797983478249053
6673363 416 17978230783283205335

> <PUBCHEM_SHAPE_MULTIPOLES>
644.31
25.43
7.6
1.23
2.74
2.26
-0.09
-47.68
5.86
-0.65
1.46
0.97
0.63
-4.14

> <PUBCHEM_SHAPE_SELFOVERLAP>
1384.496

> <PUBCHEM_SHAPE_VOLUME>
357.7

> <PUBCHEM_COORDINATE_TYPE>
2
5
10

$$$$
84973059
  -OEChem-05102415103D

 57 61  0     1  0  0  0  0  0999 V2000
   -3.0462    1.3044    0.4698 S   0  0  0  0  0  0  0  0  0  0  0  0
    3.7074    0.4089    0.5021 S   0  0  0  0  0  0  0  0  0  0  0  0
   -3.7180   -3.2010   -0.6264 O   0  0  0  0  0  0  0  0  0  0  0  0
    4.0282    3.4497    0.4048 O   0  0  0  0  0  0  0  0  0  0  0  0
    4.1748   -3.4219    0.0331 O   0  0  0  0  0  0  0  0  0  0  0  0
   -6.4127    3.4576   -0.2548 N   0  0  2  0  0  0  0  0  0  0  0  0
   -4.8265   -0.4201   -0.2994 N   0  0  0  0  0  0  0  0  0  0  0  0
   -2.5861   -1.2444    0.0425 N   0  0  0  0  0  0  0  0  0  0  0  0
    2.5730   -2.2113    1.1943 N   0  0  0  0  0  0  0  0  0  0  0  0
    5.4927    4.8687   -0.5733 N   0  0  0  0  0  0  0  0  0  0  0  0
   -7.3716    2.3727    0.0536 C   0  0  0  0  0  0  0  0  0  0  0  0
   -6.8833    1.0098   -0.4891 C   0  0  0  0  0  0  0  0  0  0  0  0
   -5.1099    3.2491    0.4234 C   0  0  0  0  0  0  0  0  0  0  0  0
   -5.4429    0.8052   -0.1811 C   0  0  0  0  0  0  0  0  0  0  0  0
   -4.6349    1.8497    0.2152 C   0  0  0  0  0  0  0  0  0  0  0  0
   -6.9696    4.7599    0.1088 C   0  0  0  0  0  0  0  0  0  0  0  0
   -3.5569   -0.2782    0.0217 C   0  0  0  0  0  0  0  0  0  0  0  0
   -2.6972   -2.6219   -0.2710 C   0  0  0  0  0  0  0  0  0  0  0  0
   -1.4455   -3.4185   -0.1796 C   0  0  0  0  0  0  0  0  0  0  0  0
    0.7475   -3.7682    0.7723 C   0  0  0  0  0  0  0  0  0  0  0  0
   -0.4273   -3.0210    0.6870 C   0  0  0  0  0  0  0  0  0  0  0  0
    1.8368   -3.3430    1.6979 C   0  0  0  0  0  0  0  0  0  0  0  0
   -1.2887   -4.5632   -0.9612 C   0  0  0  0  0  0  0  0  0  0  0  0
    0.9042   -4.9129   -0.0093 C   0  0  0  0  0  0  0  0  0  0  0  0
   -0.1139   -5.3103   -0.8763 C   0  0  0  0  0  0  0  0  0  0  0  0
    3.6975   -2.3486    0.3920 C   0  0  0  0  0  0  0  0  0  0  0  0
    4.3592   -1.0850   -0.0232 C   0  0  0  0  0  0  0  0  0  0  0  0
    4.9230    1.2903   -0.3211 C   0  0  0  0  0  0  0  0  0  0  0  0
    5.4780   -0.9134   -0.8085 C   0  0  0  0  0  0  0  0  0  0  0  0
    5.8045    0.4628   -0.9809 C   0  0  0  0  0  0  0  0  0  0  0  0
    4.9453    2.7084   -0.2770 C   0  0  0  0  0  0  0  0  0  0  0  0
    5.8319    3.5732   -0.8689 C   0  0  0  0  0  0  0  0  0  0  0  0
    4.4241    4.7322    0.1787 C   0  0  0  0  0  0  0  0  0  0  0  0
    3.6029    5.7802    0.8039 C   0  0  0  0  0  0  0  0  0  0  0  0
   -8.3465    2.5864   -0.4016 H   0  0  0  0  0  0  0  0  0  0  0  0
   -7.5281    2.3047    1.1389 H   0  0  0  0  0  0  0  0  0  0  0  0
   -7.0171    0.9786   -1.5772 H   0  0  0  0  0  0  0  0  0  0  0  0
   -7.4841    0.2031   -0.0555 H   0  0  0  0  0  0  0  0  0  0  0  0
   -5.2007    3.4334    1.5019 H   0  0  0  0  0  0  0  0  0  0  0  0
   -4.3768    3.9558    0.0168 H   0  0  0  0  0  0  0  0  0  0  0  0
   -7.8949    4.9505   -0.4460 H   0  0  0  0  0  0  0  0  0  0  0  0
   -6.2734    5.5634   -0.1561 H   0  0  0  0  0  0  0  0  0  0  0  0
   -7.1889    4.8314    1.1802 H   0  0  0  0  0  0  0  0  0  0  0  0
   -1.6714   -0.8768    0.2863 H   0  0  0  0  0  0  0  0  0  0  0  0
   -0.5325   -2.1540    1.3331 H   0  0  0  0  0  0  0  0  0  0  0  0
    1.4145   -3.0559    2.6679 H   0  0  0  0  0  0  0  0  0  0  0  0
    2.5328   -4.1678    1.8914 H   0  0  0  0  0  0  0  0  0  0  0  0
   -2.0672   -4.8874   -1.6469 H   0  0  0  0  0  0  0  0  0  0  0  0
    1.8147   -5.5038    0.0450 H   0  0  0  0  0  0  0  0  0  0  0  0
    0.0091   -6.2006   -1.4861 H   0  0  0  0  0  0  0  0  0  0  0  0
    2.2443   -1.2810    1.4366 H   0  0  0  0  0  0  0  0  0  0  0  0
    6.0405   -1.7306   -1.2419 H   0  0  0  0  0  0  0  0  0  0  0  0
    6.6488    0.8089   -1.5643 H   0  0  0  0  0  0  0  0  0  0  0  0
    6.6897    3.3489   -1.4866 H   0  0  0  0  0  0  0  0  0  0  0  0
    3.9956    6.7737    0.5675 H   0  0  0  0  0  0  0  0  0  0  0  0
    3.5968    5.6659    1.8919 H   0  0  0  0  0  0  0  0  0  0  0  0
    2.5714    5.7266    0.4433 H   0  0  0  0  0  0  0  0  0  0  0  0
  1 15  1  0  0  0  0
  1 17  1  0  0  0  0
  2 27  1  0  0  0  0
  2 28  1  0  0  0  0
  3 18  2  0  0  0  0
  4 31  1  0  0  0  0
  4 33  1  0  0  0  0
  5 26  2  0  0  0  0
  6 11  1  0  0  0  0
  6 13  1  0  0  0  0
  6 16  1  0  0  0  0
  7 14  1  0  0  0  0
  7 17  2  0  0  0  0
  8 17  1  0  0  0  0
  8 18  1  0  0  0  0
  8 44  1  0  0  0  0
  9 22  1  0  0  0  0
  9 26  1  0  0  0  0
  9 51  1  0  0  0  0
 10 32  1  0  0  0  0
 10 33  2  0  0  0  0
 11 12  1  0  0  0  0
 11 35  1  0  0  0  0
 11 36  1  0  0  0  0
 12 14  1  0  0  0  0
 12 37  1  0  0  0  0
 12 38  1  0  0  0  0
 13 15  1  0  0  0  0
 13 39  1  0  0  0  0
 13 40  1  0  0  0  0
 14 15  2  0  0  0  0
 16 41  1  0  0  0  0
 16 42  1  0  0  0  0
 16 43  1  0  0  0  0
 18 19  1  0  0  0  0
 19 21  1  0  0  0  0
 19 23  2  0  0  0  0
 20 21  2  0  0  0  0
 20 22  1  0  0  0  0
 20 24  1  0  0  0  0
 21 45  1  0  0  0  0
 22 46  1  0  0  0  0
 22 47  1  0  0  0  0
 23 25  1  0  0  0  0
 23 48  1  0  0  0  0
 24 25  2  0  0  0  0
 24 49  1  0  0  0  0
 25 50  1  0  0  0  0
 26 27  1  0  0  0  0
 27 29  2  0  0  0  0
 28 30  2  0  0  0  0
 28 31  1  0  0  0  0
 29 30  1  0  0  0  0
 29 52  1  0  0  0  0
 30 53  1  0  0  0  0
 31 32  2  0  0  0  0
 32 54  1  0  0  0  0
 33 34  1  0  0  0  0
 34 55  1  0  0  0  0
 34 56  1  0  0  0  0
 34 57  1  0  0  0  0
M  END
> <PUBCHEM_COMPOUND_CID>
84973059

> <PUBCHEM_CONFORMER_RMSD>
1.4

> <PUBCHEM_CONFORMER_DIVERSEORDER>
1
79
45
41
62
38
6
7
75
59
63
19
80
95
17
55
24
27
40
72
54
86
13
60
34
51
22
3
35
4
64
57
36
32
30
25
29
23
47
88
85
21
43
11
50
49
52
33
37
20
18
65
39
66
61
68
31
42
58
69
15
83
5
67
78
48
90
56
16
76
94
53
93
44
14
89
81
73
92
70
9
46
26
10
74
71
91
77
12
28
84
87
82
2
8

> <PUBCHEM_MMFF94_PARTIAL_CHARGES>
43
1 -0.08
10 -0.57
11 0.27
12 0.18
13 0.45
14 0.05
15 -0.14
16 0.27
17 0.44
18 0.54
19 0.09
2 -0.08
20 -0.14
21 -0.15
22 0.44
23 -0.15
24 -0.15
25 -0.15
26 0.71
27 -0.05
28 0.04
29 -0.15
3 -0.57
30 -0.15
31 0.14
32 0.08
33 0.3
34 0.18
4 -0.28
44 0.37
45 0.15
48 0.15
49 0.15
5 -0.57
50 0.15
51 0.37
52 0.15
53 0.15
54 0.15
6 -0.81
7 -0.57
8 -0.49
9 -0.73

> <PUBCHEM_EFFECTIVE_ROTOR_COUNT>
8.8

> <PUBCHEM_PHARMACOPHORE_FEATURES>
10
1 3 acceptor
1 5 acceptor
1 6 cation
1 8 donor
1 9 donor
5 1 7 14 15 17 rings
5 2 27 28 29 30 rings
5 4 10 31 32 33 rings
6 19 20 21 23 24 25 rings
6 6 11 12 13 14 15 rings

> <PUBCHEM_HEAVY_ATOM_COUNT>
34

> <PUBCHEM_ATOM_DEF_STEREO_COUNT>
0

> <PUBCHEM_ATOM_UDEF_STEREO_COUNT>
0

> <PUBCHEM_BOND_DEF_STEREO_COUNT>
0

> <PUBCHEM_BOND_UDEF_STEREO_COUNT>
0

> <PUBCHEM_ISOTOPIC_ATOM_COUNT>
0

> <PUBCHEM_COMPONENT_COUNT>
1

> <PUBCHEM_CACTVS_TAUTO_COUNT>
6

> <PUBCHEM_CONFORMER_ID>
0510960300000001

> <PUBCHEM_MMFF94_ENERGY>
60.7249

> <PUBCHEM_FEATURE_SELFOVERLAP>
50.818

> <PUBCHEM_SHAPE_FINGERPRINT>
10462674 296 17476363799390389786
10556698 54 18341629147919803766
10673678 19 18339927000630261755
10864689 126 18410583890169326236
10917259 69 18336830888410110556
11273773 38 18339079259584158266
11374522 174 18188226350105782052
11479125 193 18337116756040775641
11505856 67 18269828882474301015
11761917 142 17836074947083598928
11828042 163 18411428294083648732
11828042 53 17903649810999509804
13944108 23 18122907525357764704
14187579 7 18123752230009851710
14251764 75 18409167714264611367
14429114 114 18266175217707483906
14747282 540 18045508521782247348
14790565 3 18410856568383335099
15001296 14 18334572425888417051
15198563 99 17983010343666880391
15320295 198 17756144488960658125
15320467 1 18266741285870933256
15400415 2 18410574019564859541
155225 5 17761774366361769544
15569901 51 17402331469326826105
15773879 134 18411412883234653869
15979999 66 17478335236187389262
16067689 134 17766009298415781793
16708801 149 17538839587842983732
19053607 189 18267857453919915000
19302320 297 18265049128753911754
20691028 202 18410852157556897549
21792965 106 17905327687481484688
23569914 152 18056786255914789278
23576562 1 18127975204927783511
23729417 116 16540739791610955087
245318 6 18187943750010611175
3388396 114 17550089807486658222
3525247 154 17261594487793268920
353859 123 15604253461212236073
397830 11 18046081367841491211
44280116 191 18265624186668662748
4487111 67 17979354484456448904
4756261 7 17619670137740594179
5109719 28 18339092480157860841
5265222 85 18340206392769373449
53794403 172 18338516335569494951
550186 72 17258497172216519334
5951187 136 18342746169834183950
6036956 94 17758118485260940892
6176135 31 18336817637460088872

> <PUBCHEM_SHAPE_MULTIPOLES>
664.89
19.51
10.32
0.97
18.18
2.12
-0.13
30.56
3.06
-5.71
-0.06
-0.67
-0.48
-1.54

> <PUBCHEM_SHAPE_SELFOVERLAP>
1425.58

> <PUBCHEM_SHAPE_VOLUME>
370.3

> <PUBCHEM_COORDINATE_TYPE>
2
5
10

$$$$
56599755
  -OEChem-05102415103D

 55 59  0     1  0  0  0  0  0999 V2000
   -3.0291    1.3025    0.5142 S   0  0  0  0  0  0  0  0  0  0  0  0
    3.7589    0.7492    0.5866 S   0  0  0  0  0  0  0  0  0  0  0  0
   -3.4623   -3.2040   -0.6922 O   0  0  0  0  0  0  0  0  0  0  0  0
    4.4258   -3.0412    0.0369 O   0  0  0  0  0  0  0  0  0  0  0  0
   -6.4943    3.2994   -0.1922 N   0  0  2  0  0  0  0  0  0  0  0  0
   -4.7131   -0.4911   -0.3114 N   0  0  0  0  0  0  0  0  0  0  0  0
   -2.4367   -1.2090    0.0325 N   0  0  0  0  0  0  0  0  0  0  0  0
    2.7551   -1.9409    1.2105 N   0  0  0  0  0  0  0  0  0  0  0  0
    5.4726    5.2806   -0.4838 N   0  0  0  0  0  0  0  0  0  0  0  0
    4.3720    5.3496    0.2845 N   0  0  0  0  0  0  0  0  0  0  0  0
   -7.3995    2.1604    0.0819 C   0  0  0  0  0  0  0  0  0  0  0  0
   -6.8382    0.8371   -0.4875 C   0  0  0  0  0  0  0  0  0  0  0  0
   -5.1884    3.1410    0.4934 C   0  0  0  0  0  0  0  0  0  0  0  0
   -5.3919    0.6984   -0.1707 C   0  0  0  0  0  0  0  0  0  0  0  0
   -4.6412    1.7727    0.2574 C   0  0  0  0  0  0  0  0  0  0  0  0
   -7.1196    4.5629    0.1961 C   0  0  0  0  0  0  0  0  0  0  0  0
   -3.4551   -0.2929    0.0248 C   0  0  0  0  0  0  0  0  0  0  0  0
   -2.4752   -2.5825   -0.3138 C   0  0  0  0  0  0  0  0  0  0  0  0
   -1.1854   -3.3168   -0.2290 C   0  0  0  0  0  0  0  0  0  0  0  0
    1.0145   -3.5776    0.7353 C   0  0  0  0  0  0  0  0  0  0  0  0
   -0.1959   -2.8889    0.6562 C   0  0  0  0  0  0  0  0  0  0  0  0
    2.0731   -3.1198    1.6808 C   0  0  0  0  0  0  0  0  0  0  0  0
   -0.9643   -4.4334   -1.0354 C   0  0  0  0  0  0  0  0  0  0  0  0
    1.2355   -4.6942   -0.0710 C   0  0  0  0  0  0  0  0  0  0  0  0
    0.2462   -5.1220   -0.9566 C   0  0  0  0  0  0  0  0  0  0  0  0
    4.4919   -0.6973    0.0364 C   0  0  0  0  0  0  0  0  0  0  0  0
    3.8917   -2.0022    0.4160 C   0  0  0  0  0  0  0  0  0  0  0  0
    4.9342    1.7098   -0.2060 C   0  0  0  0  0  0  0  0  0  0  0  0
    5.6070   -0.4512   -0.7340 C   0  0  0  0  0  0  0  0  0  0  0  0
    5.8631    0.9433   -0.8744 C   0  0  0  0  0  0  0  0  0  0  0  0
    4.9414    3.1850   -0.1717 C   0  0  0  0  0  0  0  0  0  0  0  0
    5.8552    4.0066   -0.7854 C   0  0  0  0  0  0  0  0  0  0  0  0
    4.0521    4.0664    0.4718 C   0  0  0  0  0  0  0  0  0  0  0  0
   -7.5614    2.0590    1.1638 H   0  0  0  0  0  0  0  0  0  0  0  0
   -8.3802    2.3352   -0.3774 H   0  0  0  0  0  0  0  0  0  0  0  0
   -6.9612    0.8249   -1.5772 H   0  0  0  0  0  0  0  0  0  0  0  0
   -7.4009   -0.0089   -0.0784 H   0  0  0  0  0  0  0  0  0  0  0  0
   -5.2973    3.2950    1.5749 H   0  0  0  0  0  0  0  0  0  0  0  0
   -4.4887    3.8932    0.1101 H   0  0  0  0  0  0  0  0  0  0  0  0
   -8.0487    4.7195   -0.3629 H   0  0  0  0  0  0  0  0  0  0  0  0
   -6.4629    5.4066   -0.0435 H   0  0  0  0  0  0  0  0  0  0  0  0
   -7.3511    4.5979    1.2668 H   0  0  0  0  0  0  0  0  0  0  0  0
   -1.5439   -0.8015    0.2934 H   0  0  0  0  0  0  0  0  0  0  0  0
   -0.3504   -2.0438    1.3211 H   0  0  0  0  0  0  0  0  0  0  0  0
    1.6287   -2.8774    2.6532 H   0  0  0  0  0  0  0  0  0  0  0  0
    2.8084   -3.9128    1.8618 H   0  0  0  0  0  0  0  0  0  0  0  0
   -1.7196   -4.7802   -1.7357 H   0  0  0  0  0  0  0  0  0  0  0  0
    2.1743   -5.2394   -0.0218 H   0  0  0  0  0  0  0  0  0  0  0  0
    0.4192   -5.9903   -1.5857 H   0  0  0  0  0  0  0  0  0  0  0  0
    2.3776   -1.0343    1.4712 H   0  0  0  0  0  0  0  0  0  0  0  0
    6.2145   -1.2288   -1.1794 H   0  0  0  0  0  0  0  0  0  0  0  0
    6.6947    1.3400   -1.4434 H   0  0  0  0  0  0  0  0  0  0  0  0
    6.7263    3.8169   -1.3969 H   0  0  0  0  0  0  0  0  0  0  0  0
    3.1821    3.8389    1.0717 H   0  0  0  0  0  0  0  0  0  0  0  0
    5.9147    6.1460   -0.7675 H   0  0  0  0  0  0  0  0  0  0  0  0
  1 15  1  0  0  0  0
  1 17  1  0  0  0  0
  2 26  1  0  0  0  0
  2 28  1  0  0  0  0
  3 18  2  0  0  0  0
  4 27  2  0  0  0  0
  5 11  1  0  0  0  0
  5 13  1  0  0  0  0
  5 16  1  0  0  0  0
  6 14  1  0  0  0  0
  6 17  2  0  0  0  0
  7 17  1  0  0  0  0
  7 18  1  0  0  0  0
  7 43  1  0  0  0  0
  8 22  1  0  0  0  0
  8 27  1  0  0  0  0
  8 50  1  0  0  0  0
  9 10  1  0  0  0  0
  9 32  1  0  0  0  0
  9 55  1  0  0  0  0
 10 33  2  0  0  0  0
 11 12  1  0  0  0  0
 11 34  1  0  0  0  0
 11 35  1  0  0  0  0
 12 14  1  0  0  0  0
 12 36  1  0  0  0  0
 12 37  1  0  0  0  0
 13 15  1  0  0  0  0
 13 38  1  0  0  0  0
 13 39  1  0  0  0  0
 14 15  2  0  0  0  0
 16 40  1  0  0  0  0
 16 41  1  0  0  0  0
 16 42  1  0  0  0  0
 18 19  1  0  0  0  0
 19 21  1  0  0  0  0
 19 23  2  0  0  0  0
 20 21  2  0  0  0  0
 20 22  1  0  0  0  0
 20 24  1  0  0  0  0
 21 44  1  0  0  0  0
 22 45  1  0  0  0  0
 22 46  1  0  0  0  0
 23 25  1  0  0  0  0
 23 47  1  0  0  0  0
 24 25  2  0  0  0  0
 24 48  1  0  0  0  0
 25 49  1  0  0  0  0
 26 27  1  0  0  0  0
 26 29  2  0  0  0  0
 28 30  2  0  0  0  0
 28 31  1  0  0  0  0
 29 30  1  0  0  0  0
 29 51  1  0  0  0  0
 30 52  1  0  0  0  0
 31 32  2  0  0  0  0
 31 33  1  0  0  0  0
 32 53  1  0  0  0  0
 33 54  1  0  0  0  0
M  END
> <PUBCHEM_COMPOUND_CID>
56599755

> <PUBCHEM_CONFORMER_RMSD>
1

> <PUBCHEM_CONFORMER_DIVERSEORDER>
1
111
137
113
60
228
107
259
147
140
214
81
281
98
57
121
190
171
136
61
229
93
95
86
18
154
22
254
103
288
94
38
146
201
20
133
155
125
124
189
176
193
68
82
104
216
141
39
132
72
58
52
207
97
240
252
71
23
122
48
131
21
261
198
36
123
126
282
128
179
100
29
170
213
26
135
235
260
65
185
110
249
54
237
96
150
163
63
53
59
145
250
219
116
102
24
46
162
34
45
174
166
272
195
153
6
105
187
119
173
269
64
12
91
37
157
177
109
108
258
253
181
101
273
278
139
30
251
247
19
138
90
169
117
129
99
55
152
245
283
265
106
287
151
255
16
15
233
239
212
289
210
14
11
25
143
241
78
142
130
231
87
28
218
182
88
277
47
127
275
246
172
80
200
264
206
33
32
112
286
197
191
234
31
156
217
56
276
115
62
79
208
118
114
167
256
165
41
238
13
89
9
236
77
199
3
76
67
222
188
148
284
149
262
4
49
196
75
205
268
244
73
184
242
178
42
69
168
215
175
66
220
202
263
223
267
8
211
70
85
224
158
134
274
161
40
226
120
35
180
92
221
144
227
257
271
243
51
279
164
248
2
160
194
5
74
266
27
232
159
204
84
230
225
183
186
50
10
280
192
209
17
43
203
44
285
270
83
7

> <PUBCHEM_MMFF94_PARTIAL_CHARGES>
43
1 -0.08
10 -0.71
11 0.27
12 0.18
13 0.45
14 0.05
15 -0.14
16 0.27
17 0.44
18 0.54
19 0.09
2 -0.08
20 -0.14
21 -0.15
22 0.44
23 -0.15
24 -0.15
25 -0.15
26 -0.05
27 0.71
28 0.04
29 -0.15
3 -0.57
30 -0.15
32 -0.3
33 0.14
4 -0.57
43 0.37
44 0.15
47 0.15
48 0.15
49 0.15
5 -0.81
50 0.37
51 0.15
52 0.15
53 0.15
54 0.15
55 0.27
6 -0.57
7 -0.49
8 -0.73
9 0.3

> <PUBCHEM_EFFECTIVE_ROTOR_COUNT>
8.8

> <PUBCHEM_PHARMACOPHORE_FEATURES>
12
1 10 acceptor
1 3 acceptor
1 4 acceptor
1 5 cation
1 7 donor
1 8 donor
1 9 donor
5 1 6 14 15 17 rings
5 2 26 28 29 30 rings
5 9 10 31 32 33 rings
6 19 20 21 23 24 25 rings
6 5 11 12 13 14 15 rings

> <PUBCHEM_HEAVY_ATOM_COUNT>
33

> <PUBCHEM_ATOM_DEF_STEREO_COUNT>
0

> <PUBCHEM_ATOM_UDEF_STEREO_COUNT>
0

> <PUBCHEM_BOND_DEF_STEREO_COUNT>
0

> <PUBCHEM_BOND_UDEF_STEREO_COUNT>
0

> <PUBCHEM_ISOTOPIC_ATOM_COUNT>
0

> <PUBCHEM_COMPONENT_COUNT>
1

> <PUBCHEM_CACTVS_TAUTO_COUNT>
21

> <PUBCHEM_CONFORMER_ID>
035FA4CB00000001

> <PUBCHEM_MMFF94_ENERGY>
61.3712

> <PUBCHEM_FEATURE_SELFOVERLAP>
60.968

> <PUBCHEM_SHAPE_FINGERPRINT>
10462674 296 17548985451514949952
10556698 54 17773016760427390008
10673678 19 18339927017736187011
10864689 126 18410583898780515716
10917259 69 18337112371992774884
10937287 8 18410291453988111746
11273773 38 18339642226806963674
11374522 174 18188506738466413740
11477941 20 16975893010287182478
11479125 193 18337397140027338289
11505856 67 18197771301226296943
11761917 142 17836356430681977168
11828042 163 18411709777666287084
11828042 53 17903648724367561060
12061779 8 16807877587687272284
13944108 23 18195528082292265552
13974486 27 15600062127255272052
14251764 75 18409449201983636715
14429114 114 18266175222091966096
14747282 540 18117847603734697732
14790565 3 18411136952322243059
15001296 14 18335135388621193233
15142526 21 18186238424572014555
15198563 99 17911234237374468495
15320295 198 17828765041520836405
15320467 1 18267022752289396816
15400415 2 18410855503110464165
155225 5 17762055849981292256
15773879 134 18411975837435589189
15979999 66 17550956892759819550
16067689 134 17766009298363105793
19053607 189 18268137829400841672
19302320 297 18265330616736746154
20691028 202 18411133649592281493
21792965 106 17833550477498671760
23569914 152 18056786268831131780
23576562 1 18200314286684860231
23729417 116 16613079964395213551
245318 6 18187941568077385111
3388396 114 17478032217886037934
397830 11 18118419350208304907
4408954 64 16309350901943719851
44280116 191 18337681793639082284
4487111 67 18051693549207807720
5109719 28 18339373963687576361
5265222 85 18340487880588859465
53794403 172 18339079294038945871
550186 72 17186440686364413404
5951187 136 18342746182798090182
6036956 94 17614003310170389060
6176135 31 18409156715117500536
636783 164 17839716478783537528
6700243 42 13828981523579582961

> <PUBCHEM_SHAPE_MULTIPOLES>
645.2
19.88
9.51
0.97
19.04
1.69
-0.12
31.81
2.26
-6.78
0.87
-0.58
-0.57
-2.14

> <PUBCHEM_SHAPE_SELFOVERLAP>
1383.913

> <PUBCHEM_SHAPE_VOLUME>
359.4

> <PUBCHEM_COORDINATE_TYPE>
2
5
10

$$$$
68011389
  -OEChem-05102415103D

 68 73  0     1  0  0  0  0  0999 V2000
   -4.2237   -2.7714   -0.5260 O   0  0  0  0  0  0  0  0  0  0  0  0
    1.4769   -1.3840    1.7055 O   0  0  0  0  0  0  0  0  0  0  0  0
    5.5325    3.6763   -0.8798 O   0  0  0  0  0  0  0  0  0  0  0  0
   -7.5412    2.4595   -0.2242 N   0  0  2  0  0  0  0  0  0  0  0  0
   -2.5685   -1.1643   -0.0716 N   0  0  0  0  0  0  0  0  0  0  0  0
    2.2515   -3.3486    0.7463 N   0  0  0  0  0  0  0  0  0  0  0  0
    4.5457    0.3303   -0.5941 N   0  0  0  0  0  0  0  0  0  0  0  0
    4.1766   -1.7885   -0.6326 N   0  0  0  0  0  0  0  0  0  0  0  0
    4.9507   -0.8314   -1.1321 N   0  0  0  0  0  0  0  0  0  0  0  0
    4.7164    2.6745   -0.3506 N   0  0  0  0  0  0  0  0  0  0  0  0
    6.4723    3.1464   -1.7661 N   0  0  0  0  0  0  0  0  0  0  0  0
    6.8790    0.8920   -2.4863 N   0  0  0  0  0  0  0  0  0  0  0  0
   -5.4562    3.7512   -0.0980 C   0  0  0  0  0  0  0  0  0  0  0  0
   -6.8403    3.6394   -0.7455 C   0  0  0  0  0  0  0  0  0  0  0  0
   -6.8489    1.2287   -0.6457 C   0  0  0  0  0  0  0  0  0  0  0  0
   -4.6939    2.4519   -0.1186 C   0  0  0  0  0  0  0  0  0  0  0  0
   -5.3693    1.2387   -0.3364 C   0  0  0  0  0  0  0  0  0  0  0  0
   -4.6487    0.0367   -0.3299 C   0  0  0  0  0  0  0  0  0  0  0  0
   -3.3169    2.4423    0.1391 C   0  0  0  0  0  0  0  0  0  0  0  0
   -8.9322    2.4409   -0.6752 C   0  0  0  0  0  0  0  0  0  0  0  0
   -3.2762    0.0382   -0.0821 C   0  0  0  0  0  0  0  0  0  0  0  0
   -2.6115    1.2393    0.1545 C   0  0  0  0  0  0  0  0  0  0  0  0
   -3.0626   -2.4578   -0.2865 C   0  0  0  0  0  0  0  0  0  0  0  0
   -2.0482   -3.5433   -0.2394 C   0  0  0  0  0  0  0  0  0  0  0  0
    0.0626   -4.4019    0.5633 C   0  0  0  0  0  0  0  0  0  0  0  0
   -0.8891   -3.3832    0.5201 C   0  0  0  0  0  0  0  0  0  0  0  0
    1.3018   -4.2308    1.3755 C   0  0  0  0  0  0  0  0  0  0  0  0
   -2.2555   -4.7224   -0.9554 C   0  0  0  0  0  0  0  0  0  0  0  0
    3.5037    0.1503    0.2627 C   0  0  0  0  0  0  0  0  0  0  0  0
   -0.1446   -5.5809   -0.1526 C   0  0  0  0  0  0  0  0  0  0  0  0
    3.2851   -1.2038    0.2235 C   0  0  0  0  0  0  0  0  0  0  0  0
   -1.3038   -5.7411   -0.9120 C   0  0  0  0  0  0  0  0  0  0  0  0
    2.8435    1.2015    0.9993 C   0  0  0  0  0  0  0  0  0  0  0  0
    2.2590   -1.9782    0.9680 C   0  0  0  0  0  0  0  0  0  0  0  0
    5.1611    1.5530   -0.9147 C   0  0  0  0  0  0  0  0  0  0  0  0
    3.3013    1.5576    2.2679 C   0  0  0  0  0  0  0  0  0  0  0  0
    1.7479    1.8612    0.4426 C   0  0  0  0  0  0  0  0  0  0  0  0
    2.6633    2.5734    2.9800 C   0  0  0  0  0  0  0  0  0  0  0  0
    1.1100    2.8769    1.1545 C   0  0  0  0  0  0  0  0  0  0  0  0
    6.2226    1.8383   -1.7706 C   0  0  0  0  0  0  0  0  0  0  0  0
    1.5676    3.2331    2.4232 C   0  0  0  0  0  0  0  0  0  0  0  0
   -5.5662    4.0647    0.9480 H   0  0  0  0  0  0  0  0  0  0  0  0
   -4.8836    4.5264   -0.6211 H   0  0  0  0  0  0  0  0  0  0  0  0
   -6.7450    3.5856   -1.8386 H   0  0  0  0  0  0  0  0  0  0  0  0
   -7.3992    4.5544   -0.5136 H   0  0  0  0  0  0  0  0  0  0  0  0
   -6.9649    1.0672   -1.7259 H   0  0  0  0  0  0  0  0  0  0  0  0
   -7.3075    0.3790   -0.1244 H   0  0  0  0  0  0  0  0  0  0  0  0
   -5.2214   -0.8586   -0.5277 H   0  0  0  0  0  0  0  0  0  0  0  0
   -2.7875    3.3724    0.3295 H   0  0  0  0  0  0  0  0  0  0  0  0
   -9.4640    3.3286   -0.3153 H   0  0  0  0  0  0  0  0  0  0  0  0
   -9.4581    1.5720   -0.2642 H   0  0  0  0  0  0  0  0  0  0  0  0
   -9.0141    2.4095   -1.7677 H   0  0  0  0  0  0  0  0  0  0  0  0
   -1.5434    1.2530    0.3531 H   0  0  0  0  0  0  0  0  0  0  0  0
   -1.5691   -1.0492    0.0703 H   0  0  0  0  0  0  0  0  0  0  0  0
   -0.7324   -2.5001    1.1299 H   0  0  0  0  0  0  0  0  0  0  0  0
    1.0464   -3.8475    2.3708 H   0  0  0  0  0  0  0  0  0  0  0  0
    1.8086   -5.1903    1.5290 H   0  0  0  0  0  0  0  0  0  0  0  0
   -3.1488   -4.8654   -1.5576 H   0  0  0  0  0  0  0  0  0  0  0  0
    0.5890   -6.3823   -0.1300 H   0  0  0  0  0  0  0  0  0  0  0  0
    2.9251   -3.7507    0.1005 H   0  0  0  0  0  0  0  0  0  0  0  0
   -1.4642   -6.6585   -1.4708 H   0  0  0  0  0  0  0  0  0  0  0  0
    4.1539    1.0529    2.7161 H   0  0  0  0  0  0  0  0  0  0  0  0
    1.3778    1.5949   -0.5447 H   0  0  0  0  0  0  0  0  0  0  0  0
    3.0196    2.8508    3.9677 H   0  0  0  0  0  0  0  0  0  0  0  0
    0.2570    3.3909    0.7212 H   0  0  0  0  0  0  0  0  0  0  0  0
    1.0707    4.0240    2.9773 H   0  0  0  0  0  0  0  0  0  0  0  0
    6.6429   -0.0949   -2.4492 H   0  0  0  0  0  0  0  0  0  0  0  0
    7.6501    1.1266   -3.1037 H   0  0  0  0  0  0  0  0  0  0  0  0
  1 23  2  0  0  0  0
  2 34  2  0  0  0  0
  3 10  1  0  0  0  0
  3 11  1  0  0  0  0
  4 14  1  0  0  0  0
  4 15  1  0  0  0  0
  4 20  1  0  0  0  0
  5 21  1  0  0  0  0
  5 23  1  0  0  0  0
  5 54  1  0  0  0  0
  6 27  1  0  0  0  0
  6 34  1  0  0  0  0
  6 60  1  0  0  0  0
  7  9  1  0  0  0  0
  7 29  1  0  0  0  0
  7 35  1  0  0  0  0
  8  9  2  0  0  0  0
  8 31  1  0  0  0  0
 10 35  2  0  0  0  0
 11 40  2  0  0  0  0
 12 40  1  0  0  0  0
 12 67  1  0  0  0  0
 12 68  1  0  0  0  0
 13 14  1  0  0  0  0
 13 16  1  0  0  0  0
 13 42  1  0  0  0  0
 13 43  1  0  0  0  0
 14 44  1  0  0  0  0
 14 45  1  0  0  0  0
 15 17  1  0  0  0  0
 15 46  1  0  0  0  0
 15 47  1  0  0  0  0
 16 17  2  0  0  0  0
 16 19  1  0  0  0  0
 17 18  1  0  0  0  0
 18 21  2  0  0  0  0
 18 48  1  0  0  0  0
 19 22  2  0  0  0  0
 19 49  1  0  0  0  0
 20 50  1  0  0  0  0
 20 51  1  0  0  0  0
 20 52  1  0  0  0  0
 21 22  1  0  0  0  0
 22 53  1  0  0  0  0
 23 24  1  0  0  0  0
 24 26  1  0  0  0  0
 24 28  2  0  0  0  0
 25 26  2  0  0  0  0
 25 27  1  0  0  0  0
 25 30  1  0  0  0  0
 26 55  1  0  0  0  0
 27 56  1  0  0  0  0
 27 57  1  0  0  0  0
 28 32  1  0  0  0  0
 28 58  1  0  0  0  0
 29 31  2  0  0  0  0
 29 33  1  0  0  0  0
 30 32  2  0  0  0  0
 30 59  1  0  0  0  0
 31 34  1  0  0  0  0
 32 61  1  0  0  0  0
 33 36  2  0  0  0  0
 33 37  1  0  0  0  0
 35 40  1  0  0  0  0
 36 38  1  0  0  0  0
 36 62  1  0  0  0  0
 37 39  2  0  0  0  0
 37 63  1  0  0  0  0
 38 41  2  0  0  0  0
 38 64  1  0  0  0  0
 39 41  1  0  0  0  0
 39 65  1  0  0  0  0
 41 66  1  0  0  0  0
M  END
> <PUBCHEM_COMPOUND_CID>
68011389

> <PUBCHEM_CONFORMER_RMSD>
1.4

> <PUBCHEM_CONFORMER_DIVERSEORDER>
1
22
16
55
80
42
14
7
148
104
153
127
122
121
134
115
28
111
130
98
114
133
48
132
54
43
94
95
38
82
63
147
103
57
139
32
62
83
24
73
69
136
129
110
56
70
30
67
15
113
59
31
12
65
40
118
88
152
61
68
140
23
21
47
46
151
72
37
52
66
25
150
45
99
60
128
17
109
64
96
50
100
131
126
79
141
74
92
71
138
143
13
117
18
89
101
41
20
87
53
137
34
2
105
119
116
36
39
120
44
142
144
124
19
26
6
81
91
27
125
75
76
78
49
84
97
85
123
51
58
108
149
90
146
10
29
145
33
106
86
112
8
3
4
35
135
107
9
102
77
5
11
93

> <PUBCHEM_MMFF94_PARTIAL_CHARGES>
57
1 -0.57
10 -0.41
11 -0.41
12 -0.88
13 0.14
14 0.27
15 0.41
16 -0.14
17 -0.14
18 -0.15
19 -0.15
2 -0.57
20 0.27
21 0.12
22 -0.15
23 0.54
24 0.09
25 -0.14
26 -0.15
27 0.44
28 -0.15
29 -0.2
3 0.24
30 -0.15
31 0.14
32 -0.15
33 0.05
34 0.72
35 0.21
36 -0.15
37 -0.15
38 -0.15
39 -0.15
4 -0.81
40 0.37
41 -0.15
48 0.15
49 0.15
5 -0.55
53 0.15
54 0.37
55 0.15
58 0.15
59 0.15
6 -0.73
60 0.37
61 0.15
62 0.15
63 0.15
64 0.15
65 0.15
66 0.15
67 0.4
68 0.4
7 0.65
8 -0.23
9 -0.42

> <PUBCHEM_EFFECTIVE_ROTOR_COUNT>
9.8

> <PUBCHEM_PHARMACOPHORE_FEATURES>
14
1 1 acceptor
1 12 donor
1 2 acceptor
1 4 cation
1 5 donor
1 6 donor
3 11 12 40 cation
3 7 10 35 cation
5 3 10 11 35 40 rings
5 7 8 9 29 31 rings
6 16 17 18 19 21 22 rings
6 24 25 26 28 30 32 rings
6 33 36 37 38 39 41 rings
6 4 13 14 15 16 17 rings

> <PUBCHEM_HEAVY_ATOM_COUNT>
41

> <PUBCHEM_ATOM_DEF_STEREO_COUNT>
0

> <PUBCHEM_ATOM_UDEF_STEREO_COUNT>
0

> <PUBCHEM_BOND_DEF_STEREO_COUNT>
0

> <PUBCHEM_BOND_UDEF_STEREO_COUNT>
0

> <PUBCHEM_ISOTOPIC_ATOM_COUNT>
0

> <PUBCHEM_COMPONENT_COUNT>
1

> <PUBCHEM_CACTVS_TAUTO_COUNT>
8

> <PUBCHEM_CONFORMER_ID>
040DC57D00000001

> <PUBCHEM_MMFF94_ENERGY>
105.6953

> <PUBCHEM_FEATURE_SELFOVERLAP>
71.135

> <PUBCHEM_SHAPE_FINGERPRINT>
10439779 11 18196346278305858778
10556698 54 18200028576806045772
10864689 126 18413671309786684970
10974685 15 18052248793969054784
11062273 19 17908426849286489863
11093857 5 18124868216979123616
11093857 51 18126831721191929363
11273773 38 18408603630434503748
11374522 174 18261125032216367445
11410812 94 18047204214111710228
11966995 178 18130222628923225297
1200032 147 17821733831974476776
12061779 8 16662925636807429956
13944108 23 18050284773990712453
14068700 686 17336445910965403585
15082195 135 18052788431515375815
15150948 74 18410005503502536781
15198563 99 17981040031862403255
15320295 198 17469599612816025301
15320467 1 18051679242951027403
15400415 2 18410009923076573501
15890870 6 18339360756125363191
15961568 22 16826983972608809730
16992727 255 18408612470136517164
19053607 189 18335410245359847233
19304144 158 17839183262345210540
21133410 62 18336277786099203507
23569914 152 18055376664796807102
24204213 92 13509814884300687952
24771750 20 18337671889538774327
354706 132 18190752032221933308
508180 173 18341616992878194850
508706 21 17979917438773727738
5109719 28 18270683053232970099
5265222 85 18409733993250691149
53794403 172 18193276300112506935
5776283 40 18338803428421919064

> <PUBCHEM_SHAPE_MULTIPOLES>
781.32
18.31
8.34
1.78
19.01
12.02
0.61
-26.12
-10.77
2.44
-0.04
-3.84
-1.52
-1.07

> <PUBCHEM_SHAPE_SELFOVERLAP>
1724.21

> <PUBCHEM_SHAPE_VOLUME>
417

> <PUBCHEM_COORDINATE_TYPE>
2
5
10

$$$$
84973060
  -OEChem-05102415103D

 59 63  0     1  0  0  0  0  0999 V2000
   -3.9729    1.4541   -0.5582 S   0  0  0  0  0  0  0  0  0  0  0  0
    1.2998    0.0014   -1.5918 O   0  0  0  0  0  0  0  0  0  0  0  0
   -4.0476   -2.9156    1.1304 O   0  0  0  0  0  0  0  0  0  0  0  0
   -7.7012    3.0634   -0.4942 N   0  0  2  0  0  0  0  0  0  0  0  0
   -5.4840   -0.3289    0.5694 N   0  0  0  0  0  0  0  0  0  0  0  0
    3.5349    1.1605   -0.1050 N   0  0  0  0  0  0  0  0  0  0  0  0
   -3.1972   -0.9569    0.1317 N   0  0  0  0  0  0  0  0  0  0  0  0
    2.3072   -2.0734   -1.3475 N   0  0  0  0  0  0  0  0  0  0  0  0
   10.1322    1.9097    0.8545 N   0  0  0  0  0  0  0  0  0  0  0  0
   -8.1675    2.3506    0.7167 C   0  0  0  0  0  0  0  0  0  0  0  0
   -7.6773    0.8845    0.7385 C   0  0  0  0  0  0  0  0  0  0  0  0
   -6.2227    3.1803   -0.5283 C   0  0  0  0  0  0  0  0  0  0  0  0
   -6.2400    0.8034    0.3652 C   0  0  0  0  0  0  0  0  0  0  0  0
   -5.5911    1.8598   -0.2378 C   0  0  0  0  0  0  0  0  0  0  0  0
   -8.3157    4.3872   -0.5847 C   0  0  0  0  0  0  0  0  0  0  0  0
   -4.2665   -0.1008    0.1218 C   0  0  0  0  0  0  0  0  0  0  0  0
    4.8345    1.5011    0.1950 C   0  0  0  0  0  0  0  0  0  0  0  0
    3.5036   -0.0239   -0.7912 C   0  0  0  0  0  0  0  0  0  0  0  0
    5.6530    0.4942   -0.3210 C   0  0  0  0  0  0  0  0  0  0  0  0
    4.7996   -0.4610   -0.9408 C   0  0  0  0  0  0  0  0  0  0  0  0
    2.2651   -0.6878   -1.2729 C   0  0  0  0  0  0  0  0  0  0  0  0
    5.3431    2.6124    0.8768 C   0  0  0  0  0  0  0  0  0  0  0  0
    7.0475    0.5990   -0.1489 C   0  0  0  0  0  0  0  0  0  0  0  0
    2.3692    1.9420    0.2535 C   0  0  0  0  0  0  0  0  0  0  0  0
    1.1948   -2.8589   -1.8184 C   0  0  0  0  0  0  0  0  0  0  0  0
    0.2713   -3.2523   -0.7155 C   0  0  0  0  0  0  0  0  0  0  0  0
   -3.1282   -2.2860    0.6181 C   0  0  0  0  0  0  0  0  0  0  0  0
   -1.8200   -2.9746    0.4622 C   0  0  0  0  0  0  0  0  0  0  0  0
    7.5704    1.7047    0.5312 C   0  0  0  0  0  0  0  0  0  0  0  0
    6.7295    2.6950    1.0350 C   0  0  0  0  0  0  0  0  0  0  0  0
   -0.9560   -2.6057   -0.5689 C   0  0  0  0  0  0  0  0  0  0  0  0
    0.6345   -4.2679    0.1690 C   0  0  0  0  0  0  0  0  0  0  0  0
   -1.4568   -3.9903    1.3467 C   0  0  0  0  0  0  0  0  0  0  0  0
   -0.2297   -4.6371    1.1999 C   0  0  0  0  0  0  0  0  0  0  0  0
    8.9844    1.8178    0.7098 C   0  0  0  0  0  0  0  0  0  0  0  0
   -9.2638    2.3396    0.7528 H   0  0  0  0  0  0  0  0  0  0  0  0
   -7.8184    2.8714    1.6189 H   0  0  0  0  0  0  0  0  0  0  0  0
   -8.2595    0.2920    0.0224 H   0  0  0  0  0  0  0  0  0  0  0  0
   -7.8373    0.4565    1.7340 H   0  0  0  0  0  0  0  0  0  0  0  0
   -5.8745    3.9086    0.2159 H   0  0  0  0  0  0  0  0  0  0  0  0
   -5.9136    3.5311   -1.5201 H   0  0  0  0  0  0  0  0  0  0  0  0
   -9.4068    4.3018   -0.6344 H   0  0  0  0  0  0  0  0  0  0  0  0
   -7.9985    4.8966   -1.5015 H   0  0  0  0  0  0  0  0  0  0  0  0
   -8.0580    5.0221    0.2706 H   0  0  0  0  0  0  0  0  0  0  0  0
    5.1139   -1.3656   -1.4443 H   0  0  0  0  0  0  0  0  0  0  0  0
   -2.3515   -0.5357   -0.2410 H   0  0  0  0  0  0  0  0  0  0  0  0
    4.7031    3.3937    1.2715 H   0  0  0  0  0  0  0  0  0  0  0  0
    7.7018   -0.1748   -0.5432 H   0  0  0  0  0  0  0  0  0  0  0  0
    2.6177    2.6652    1.0319 H   0  0  0  0  0  0  0  0  0  0  0  0
    1.5990    1.2728    0.6458 H   0  0  0  0  0  0  0  0  0  0  0  0
    2.0188    2.4632   -0.6408 H   0  0  0  0  0  0  0  0  0  0  0  0
    1.6050   -3.7540   -2.3004 H   0  0  0  0  0  0  0  0  0  0  0  0
    0.6639   -2.2996   -2.5978 H   0  0  0  0  0  0  0  0  0  0  0  0
    3.1389   -2.5699   -1.0422 H   0  0  0  0  0  0  0  0  0  0  0  0
    7.1421    3.5533    1.5620 H   0  0  0  0  0  0  0  0  0  0  0  0
   -1.2269   -1.8408   -1.2911 H   0  0  0  0  0  0  0  0  0  0  0  0
    1.5880   -4.7790    0.0651 H   0  0  0  0  0  0  0  0  0  0  0  0
   -2.1134   -4.2891    2.1596 H   0  0  0  0  0  0  0  0  0  0  0  0
    0.0537   -5.4272    1.8892 H   0  0  0  0  0  0  0  0  0  0  0  0
  1 14  1  0  0  0  0
  1 16  1  0  0  0  0
  2 21  2  0  0  0  0
  3 27  2  0  0  0  0
  4 10  1  0  0  0  0
  4 12  1  0  0  0  0
  4 15  1  0  0  0  0
  5 13  1  0  0  0  0
  5 16  2  0  0  0  0
  6 17  1  0  0  0  0
  6 18  1  0  0  0  0
  6 24  1  0  0  0  0
  7 16  1  0  0  0  0
  7 27  1  0  0  0  0
  7 46  1  0  0  0  0
  8 21  1  0  0  0  0
  8 25  1  0  0  0  0
  8 54  1  0  0  0  0
  9 35  3  0  0  0  0
 10 11  1  0  0  0  0
 10 36  1  0  0  0  0
 10 37  1  0  0  0  0
 11 13  1  0  0  0  0
 11 38  1  0  0  0  0
 11 39  1  0  0  0  0
 12 14  1  0  0  0  0
 12 40  1  0  0  0  0
 12 41  1  0  0  0  0
 13 14  2  0  0  0  0
 15 42  1  0  0  0  0
 15 43  1  0  0  0  0
 15 44  1  0  0  0  0
 17 19  2  0  0  0  0
 17 22  1  0  0  0  0
 18 20  2  0  0  0  0
 18 21  1  0  0  0  0
 19 20  1  0  0  0  0
 19 23  1  0  0  0  0
 20 45  1  0  0  0  0
 22 30  2  0  0  0  0
 22 47  1  0  0  0  0
 23 29  2  0  0  0  0
 23 48  1  0  0  0  0
 24 49  1  0  0  0  0
 24 50  1  0  0  0  0
 24 51  1  0  0  0  0
 25 26  1  0  0  0  0
 25 52  1  0  0  0  0
 25 53  1  0  0  0  0
 26 31  2  0  0  0  0
 26 32  1  0  0  0  0
 27 28  1  0  0  0  0
 28 31  1  0  0  0  0
 28 33  2  0  0  0  0
 29 30  1  0  0  0  0
 29 35  1  0  0  0  0
 30 55  1  0  0  0  0
 31 56  1  0  0  0  0
 32 34  2  0  0  0  0
 32 57  1  0  0  0  0
 33 34  1  0  0  0  0
 33 58  1  0  0  0  0
 34 59  1  0  0  0  0
M  END
> <PUBCHEM_COMPOUND_CID>
84973060

> <PUBCHEM_CONFORMER_RMSD>
1

> <PUBCHEM_CONFORMER_DIVERSEORDER>
1
149
128
31
187
131
351
87
95
207
322
182
323
210
316
40
123
118
328
11
347
239
153
82
205
126
317
113
33
201
261
211
151
105
75
346
197
39
121
186
247
275
59
129
119
169
306
72
215
9
76
178
84
299
10
133
290
318
291
345
138
288
148
293
246
227
61
324
244
145
283
79
166
352
162
255
132
5
172
21
159
13
27
206
107
125
216
282
189
321
180
52
78
225
167
73
340
294
54
308
226
163
171
310
43
150
98
238
204
8
89
66
170
338
278
17
60
298
14
331
86
65
56
232
327
96
68
161
286
183
192
144
184
253
15
269
249
289
51
88
12
325
208
37
326
106
287
188
176
164
181
137
199
36
112
4
309
284
110
63
155
270
104
174
329
279
93
230
58
242
194
260
191
343
28
243
311
349
35
53
77
130
92
300
90
160
124
339
140
214
285
342
146
62
157
142
235
272
302
312
354
341
217
23
120
156
64
71
32
273
69
6
85
45
196
94
209
228
25
295
26
42
143
108
248
115
281
30
179
195
268
193
304
259
320
353
158
67
2
218
250
241
3
319
117
83
168
122
254
147
229
332
190
280
330
103
337
224
19
314
237
200
7
231
212
116
315
175
18
252
41
262
152
221
198
46
265
47
313
48
233
100
263
44
134
336
303
297
348
307
55
173
16
139
127
292
350
236
57
24
301
141
234
80
70
29
220
74
335
154
245
203
267
219
258
38
264
257
81
114
274
101
49
202
20
109
240
185
177
344
213
334
222
333
277
271
50
251
266
102
223
296
91
99
136
276
22
34
97
135
111
165
305
256

> <PUBCHEM_MMFF94_PARTIAL_CHARGES>
44
1 -0.08
10 0.27
11 0.18
12 0.45
13 0.05
14 -0.14
15 0.27
16 0.44
17 -0.15
18 -0.24
2 -0.57
20 -0.15
21 0.71
22 -0.15
23 -0.15
24 0.26
25 0.44
26 -0.14
27 0.54
28 0.09
29 0.07
3 -0.57
30 -0.15
31 -0.15
32 -0.15
33 -0.15
34 -0.15
35 0.48
4 -0.81
45 0.15
46 0.37
47 0.15
48 0.15
5 -0.57
54 0.37
55 0.15
56 0.15
57 0.15
58 0.15
59 0.15
6 0.05
7 -0.49
8 -0.73
9 -0.56

> <PUBCHEM_EFFECTIVE_ROTOR_COUNT>
7.8

> <PUBCHEM_PHARMACOPHORE_FEATURES>
12
1 2 acceptor
1 3 acceptor
1 4 cation
1 6 cation
1 7 donor
1 8 donor
1 9 acceptor
5 1 5 13 14 16 rings
5 6 17 18 19 20 rings
6 17 19 22 23 29 30 rings
6 26 28 31 32 33 34 rings
6 4 10 11 12 13 14 rings

> <PUBCHEM_HEAVY_ATOM_COUNT>
35

> <PUBCHEM_ATOM_DEF_STEREO_COUNT>
0

> <PUBCHEM_ATOM_UDEF_STEREO_COUNT>
0

> <PUBCHEM_BOND_DEF_STEREO_COUNT>
0

> <PUBCHEM_BOND_UDEF_STEREO_COUNT>
0

> <PUBCHEM_ISOTOPIC_ATOM_COUNT>
0

> <PUBCHEM_COMPONENT_COUNT>
1

> <PUBCHEM_CACTVS_TAUTO_COUNT>
6

> <PUBCHEM_CONFORMER_ID>
0510960400000001

> <PUBCHEM_MMFF94_ENERGY>
76.2757

> <PUBCHEM_FEATURE_SELFOVERLAP>
61.059

> <PUBCHEM_SHAPE_FINGERPRINT>
10190206 1 18269823350951575831
10675989 125 18195532493466265385
11059845 2 18187927339341577350
11135609 127 18120931708360210615
11409948 8 18335997432973639691
11411753 3 18268171836414451023
11476731 99 17247501588379286453
11693224 71 18337664236139362725
12559415 180 18340208496971844641
12925494 130 18334580122512802051
12988421 55 17967522493764770367
13673619 4 11314024686527125030
14223995 32 18410012148006029132
15152005 77 11602540940298304545
15439362 3 18410855425959224250
15444296 121 17896605166462053536
19053607 189 18114761360093644229
19246450 95 18334012830769119602
19304144 158 18342745143685627039
19304671 126 17986683579911705589
19438510 23 18408887330405175915
20501277 180 18123467169422141341
208703 8 10015579493431485211
21033648 29 18334584550460164270
21133410 38 17559413361437177345
22899556 56 17823711938849892979
23522609 53 17242184663800006854
23569914 2 16627114560413202272
2851757 15 18412547608803494679
354706 109 18197758085152659977
3918712 181 18340765945103100353
397638 26 18409726288015779392
4112364 45 18115300073325620059
4330586 98 12175327167538015036
5372103 7 18202283584960229325
54039377 194 11169909481677549392
57307002 19 18334012775076969501
57676310 167 18341608197301441596
6009941 240 18339360885675813786
6086070 43 16343137069647167274
6176135 31 18113628871797127501
636775 8 8214151772251665336
6677587 24 17772738382770609207
6695519 79 18048632307648402947
9896288 288 18042972166857826154

> <PUBCHEM_SHAPE_MULTIPOLES>
682.51
27.78
6.21
1.24
8.09
4.9
0.19
-43.8
-6.11
-6.39
-1.14
0.5
0.66
3.9

> <PUBCHEM_SHAPE_SELFOVERLAP>
1483.675

> <PUBCHEM_SHAPE_VOLUME>
376.3

> <PUBCHEM_COORDINATE_TYPE>
2
5
10

$$$$
68011390
  -OEChem-05102415103D

 61 65  0     1  0  0  0  0  0999 V2000
   -2.6589   -1.0356   -1.3713 O   0  0  0  0  0  0  0  0  0  0  0  0
    3.9925   -2.7685    0.3814 O   0  0  0  0  0  0  0  0  0  0  0  0
    8.0084    2.8299    1.3887 O   0  0  0  0  0  0  0  0  0  0  0  0
   -8.3310    1.8834   -1.0231 N   0  0  2  0  0  0  0  0  0  0  0  0
   -3.2989   -1.0998    0.8904 N   0  0  0  0  0  0  0  0  0  0  0  0
    2.6021   -2.2377   -1.3975 N   0  0  0  0  0  0  0  0  0  0  0  0
    5.4702    1.1019   -0.2885 N   0  0  0  0  0  0  0  0  0  0  0  0
    3.8792    0.2987   -1.4930 N   0  0  0  0  0  0  0  0  0  0  0  0
    4.6378    1.3732   -1.3066 N   0  0  0  0  0  0  0  0  0  0  0  0
    7.2111    1.7010    1.1909 N   0  0  0  0  0  0  0  0  0  0  0  0
    7.6858    3.8413    0.4818 N   0  0  0  0  0  0  0  0  0  0  0  0
    6.0518    3.9345   -1.2753 N   0  0  0  0  0  0  0  0  0  0  0  0
   -7.5625    2.6744    1.1711 C   0  0  0  0  0  0  0  0  0  0  0  0
   -8.1066    3.0798   -0.2025 C   0  0  0  0  0  0  0  0  0  0  0  0
   -7.0473    1.2263   -1.3270 C   0  0  0  0  0  0  0  0  0  0  0  0
   -6.4211    1.6953    1.0826 C   0  0  0  0  0  0  0  0  0  0  0  0
   -6.2023    0.9686   -0.1003 C   0  0  0  0  0  0  0  0  0  0  0  0
   -5.1498    0.0450   -0.1586 C   0  0  0  0  0  0  0  0  0  0  0  0
   -5.6091    1.4615    2.2000 C   0  0  0  0  0  0  0  0  0  0  0  0
   -9.0323    2.2264   -2.2599 C   0  0  0  0  0  0  0  0  0  0  0  0
   -4.3406   -0.1738    0.9562 C   0  0  0  0  0  0  0  0  0  0  0  0
   -4.5715    0.5320    2.1349 C   0  0  0  0  0  0  0  0  0  0  0  0
   -2.5413   -1.4677   -0.2296 C   0  0  0  0  0  0  0  0  0  0  0  0
   -1.4728   -2.4691    0.0252 C   0  0  0  0  0  0  0  0  0  0  0  0
    0.6623   -3.4431   -0.5496 C   0  0  0  0  0  0  0  0  0  0  0  0
   -0.3401   -2.5029   -0.7883 C   0  0  0  0  0  0  0  0  0  0  0  0
    1.8730   -3.4803   -1.4198 C   0  0  0  0  0  0  0  0  0  0  0  0
   -1.6031   -3.3756    1.0773 C   0  0  0  0  0  0  0  0  0  0  0  0
    0.5320   -4.3496    0.5027 C   0  0  0  0  0  0  0  0  0  0  0  0
   -0.6008   -4.3159    1.3159 C   0  0  0  0  0  0  0  0  0  0  0  0
    5.2680   -0.1503    0.2048 C   0  0  0  0  0  0  0  0  0  0  0  0
    4.2526   -0.6435   -0.5753 C   0  0  0  0  0  0  0  0  0  0  0  0
    3.6162   -1.9828   -0.4844 C   0  0  0  0  0  0  0  0  0  0  0  0
    6.0281   -0.7334    1.3251 C   0  0  0  0  0  0  0  0  0  0  0  0
    6.4159    2.0312    0.1749 C   0  0  0  0  0  0  0  0  0  0  0  0
    6.7028    3.3253   -0.2537 C   0  0  0  0  0  0  0  0  0  0  0  0
   -8.3643    2.2101    1.7594 H   0  0  0  0  0  0  0  0  0  0  0  0
   -7.2377    3.5771    1.7023 H   0  0  0  0  0  0  0  0  0  0  0  0
   -9.0463    3.6246   -0.0490 H   0  0  0  0  0  0  0  0  0  0  0  0
   -7.4097    3.7686   -0.6990 H   0  0  0  0  0  0  0  0  0  0  0  0
   -6.4532    1.8351   -2.0219 H   0  0  0  0  0  0  0  0  0  0  0  0
   -7.2573    0.2651   -1.8125 H   0  0  0  0  0  0  0  0  0  0  0  0
   -5.0048   -0.5105   -1.0808 H   0  0  0  0  0  0  0  0  0  0  0  0
   -5.7818    2.0030    3.1266 H   0  0  0  0  0  0  0  0  0  0  0  0
  -10.0116    2.6640   -2.0368 H   0  0  0  0  0  0  0  0  0  0  0  0
   -9.2192    1.3275   -2.8578 H   0  0  0  0  0  0  0  0  0  0  0  0
   -8.4683    2.9385   -2.8732 H   0  0  0  0  0  0  0  0  0  0  0  0
   -3.9501    0.3689    3.0119 H   0  0  0  0  0  0  0  0  0  0  0  0
   -2.9272   -1.3657    1.7992 H   0  0  0  0  0  0  0  0  0  0  0  0
   -0.2323   -1.7989   -1.6101 H   0  0  0  0  0  0  0  0  0  0  0  0
    2.5495   -4.2916   -1.1272 H   0  0  0  0  0  0  0  0  0  0  0  0
    1.5738   -3.6692   -2.4571 H   0  0  0  0  0  0  0  0  0  0  0  0
   -2.4822   -3.4021    1.7146 H   0  0  0  0  0  0  0  0  0  0  0  0
    1.3039   -5.0884    0.7008 H   0  0  0  0  0  0  0  0  0  0  0  0
   -0.7050   -5.0263    2.1309 H   0  0  0  0  0  0  0  0  0  0  0  0
    2.3470   -1.5187   -2.0688 H   0  0  0  0  0  0  0  0  0  0  0  0
    5.7107   -1.7513    1.5607 H   0  0  0  0  0  0  0  0  0  0  0  0
    5.8853   -0.1620    2.2482 H   0  0  0  0  0  0  0  0  0  0  0  0
    7.0951   -0.8086    1.0907 H   0  0  0  0  0  0  0  0  0  0  0  0
    5.3066    3.4894   -1.8023 H   0  0  0  0  0  0  0  0  0  0  0  0
    6.2803    4.8794   -1.5682 H   0  0  0  0  0  0  0  0  0  0  0  0
  1 23  2  0  0  0  0
  2 33  2  0  0  0  0
  3 10  1  0  0  0  0
  3 11  1  0  0  0  0
  4 14  1  0  0  0  0
  4 15  1  0  0  0  0
  4 20  1  0  0  0  0
  5 21  1  0  0  0  0
  5 23  1  0  0  0  0
  5 49  1  0  0  0  0
  6 27  1  0  0  0  0
  6 33  1  0  0  0  0
  6 56  1  0  0  0  0
  7  9  1  0  0  0  0
  7 31  1  0  0  0  0
  7 35  1  0  0  0  0
  8  9  2  0  0  0  0
  8 32  1  0  0  0  0
 10 35  2  0  0  0  0
 11 36  2  0  0  0  0
 12 36  1  0  0  0  0
 12 60  1  0  0  0  0
 12 61  1  0  0  0  0
 13 14  1  0  0  0  0
 13 16  1  0  0  0  0
 13 37  1  0  0  0  0
 13 38  1  0  0  0  0
 14 39  1  0  0  0  0
 14 40  1  0  0  0  0
 15 17  1  0  0  0  0
 15 41  1  0  0  0  0
 15 42  1  0  0  0  0
 16 17  2  0  0  0  0
 16 19  1  0  0  0  0
 17 18  1  0  0  0  0
 18 21  2  0  0  0  0
 18 43  1  0  0  0  0
 19 22  2  0  0  0  0
 19 44  1  0  0  0  0
 20 45  1  0  0  0  0
 20 46  1  0  0  0  0
 20 47  1  0  0  0  0
 21 22  1  0  0  0  0
 22 48  1  0  0  0  0
 23 24  1  0  0  0  0
 24 26  1  0  0  0  0
 24 28  2  0  0  0  0
 25 26  2  0  0  0  0
 25 27  1  0  0  0  0
 25 29  1  0  0  0  0
 26 50  1  0  0  0  0
 27 51  1  0  0  0  0
 27 52  1  0  0  0  0
 28 30  1  0  0  0  0
 28 53  1  0  0  0  0
 29 30  2  0  0  0  0
 29 54  1  0  0  0  0
 30 55  1  0  0  0  0
 31 32  2  0  0  0  0
 31 34  1  0  0  0  0
 32 33  1  0  0  0  0
 34 57  1  0  0  0  0
 34 58  1  0  0  0  0
 34 59  1  0  0  0  0
 35 36  1  0  0  0  0
M  END
> <PUBCHEM_COMPOUND_CID>
68011390

> <PUBCHEM_CONFORMER_RMSD>
1.4

> <PUBCHEM_CONFORMER_DIVERSEORDER>
15
14
5
40
86
49
60
51
64
19
59
69
37
35
76
87
32
74
63
68
83
71
20
28
26
13
9
34
58
67
41
50
77
66
24
8
30
85
73
80
18
78
57
11
48
72
75
17
55
47
31
39
2
62
46
33
70
1
25
10
45
79
81
52
27
22
65
21
53
61
56
29
38
7
82
23
54
88
43
84
12
44
3
6
36
42
16
4

> <PUBCHEM_MMFF94_PARTIAL_CHARGES>
47
1 -0.57
10 -0.41
11 -0.41
12 -0.88
13 0.14
14 0.27
15 0.41
16 -0.14
17 -0.14
18 -0.15
19 -0.15
2 -0.57
20 0.27
21 0.12
22 -0.15
23 0.54
24 0.09
25 -0.14
26 -0.15
27 0.44
28 -0.15
29 -0.15
3 0.24
30 -0.15
31 -0.33
32 0.14
33 0.72
34 0.18
35 0.21
36 0.37
4 -0.81
43 0.15
44 0.15
48 0.15
49 0.37
5 -0.55
50 0.15
53 0.15
54 0.15
55 0.15
56 0.37
6 -0.73
60 0.4
61 0.4
7 0.65
8 -0.23
9 -0.42

> <PUBCHEM_EFFECTIVE_ROTOR_COUNT>
8.8

> <PUBCHEM_PHARMACOPHORE_FEATURES>
13
1 1 acceptor
1 12 donor
1 2 acceptor
1 4 cation
1 5 donor
1 6 donor
3 11 12 36 cation
3 7 10 35 cation
5 3 10 11 35 36 rings
5 7 8 9 31 32 rings
6 16 17 18 19 21 22 rings
6 24 25 26 28 29 30 rings
6 4 13 14 15 16 17 rings

> <PUBCHEM_HEAVY_ATOM_COUNT>
36

> <PUBCHEM_ATOM_DEF_STEREO_COUNT>
0

> <PUBCHEM_ATOM_UDEF_STEREO_COUNT>
0

> <PUBCHEM_BOND_DEF_STEREO_COUNT>
0

> <PUBCHEM_BOND_UDEF_STEREO_COUNT>
0

> <PUBCHEM_ISOTOPIC_ATOM_COUNT>
0

> <PUBCHEM_COMPONENT_COUNT>
1

> <PUBCHEM_CACTVS_TAUTO_COUNT>
8

> <PUBCHEM_CONFORMER_ID>
040DC57E0000000F

> <PUBCHEM_MMFF94_ENERGY>
88.1173

> <PUBCHEM_FEATURE_SELFOVERLAP>
66.058

> <PUBCHEM_SHAPE_FINGERPRINT>
10280341 67 18129651028584008152
10533779 1 18342447175797071008
10675989 125 18339369548118778898
11421887 103 18339066172888632716
11476731 118 18336828564311070725
11476731 99 17682102285162140885
11828042 107 18057591265076594512
12522641 68 18131351955291350790
12559415 205 17702643584824593517
12975358 362 18265357120874889321
13008946 282 17898845743247230819
13165053 182 18336818814940284407
13782708 43 8646489587609631511
13947947 140 10809610524334001033
14415360 78 18338505443680268573
14565420 104 18261115119400465675
15131766 46 18340195311879778863
15150948 74 18412823603238769025
15198563 99 17269183261097702966
15803439 3 16200159828339356406
16096371 109 18043537109781307987
16993089 31 10879698885411721665
19053607 189 18272081734554122914
19303781 99 9439131884350583560
19304671 126 17917726673188907084
19309040 13 18202568384257971918
19438510 23 18410295852298256978
20691028 202 18411140281506816918
21033648 29 18113054939206297542
21585482 111 18409169943943852220
21647283 7 18260835899133035202
21772523 7 17969486132250230669
21792938 79 18189597403642312357
22033318 11 18041273396630091656
23516275 100 18410290285383026349
23522609 53 17058664954680411643
23569914 2 16269086112673380104
241686 156 18121223344296951908
24204213 265 17130718167994856662
2748736 6 18343021099043020242
3504750 166 11386372552473607611
3862424 121 10735873997462320529
3918712 181 18412542098291921409
393628 194 18338796831014276333
4112364 45 18041269989818913994
4330586 98 11383832727694697752
4408954 64 13262678093151680487
4756326 101 17458608014216174919
484985 159 11026888328656479278
57634706 306 18334292033803186119
6712543 237 15936128577617050891
70634741 139 18410572869985130903

> <PUBCHEM_SHAPE_MULTIPOLES>
678.43
28.42
6.14
1.79
12.24
2.01
0.09
-45.14
-0.87
-7.61
0.18
2.26
-0.44
1.51

> <PUBCHEM_SHAPE_SELFOVERLAP>
1480.403

> <PUBCHEM_SHAPE_VOLUME>
366.8

> <PUBCHEM_COORDINATE_TYPE>
2
5
10

$$$$
84973061
  -OEChem-05102415103D

 63 67  0     1  0  0  0  0  0999 V2000
   -2.7969    0.5672    0.3868 S   0  0  0  0  0  0  0  0  0  0  0  0
    4.0109    0.8342    0.5243 S   0  0  0  0  0  0  0  0  0  0  0  0
   -2.6757   -3.9965   -0.6562 O   0  0  0  0  0  0  0  0  0  0  0  0
    5.1287   -2.8665    0.1148 O   0  0  0  0  0  0  0  0  0  0  0  0
   -7.3244    3.2540    0.1270 N   0  0  0  0  0  0  0  0  0  0  0  0
   -4.2444   -1.4401   -0.3826 N   0  0  0  0  0  0  0  0  0  0  0  0
   -1.9030   -1.8687    0.0011 N   0  0  0  0  0  0  0  0  0  0  0  0
    3.3266   -1.9324    1.2370 N   0  0  0  0  0  0  0  0  0  0  0  0
    4.3095    6.0676   -0.1468 N   0  0  0  0  0  0  0  0  0  0  0  0
   -6.6631    1.9622    0.2999 C   0  0  1  0  0  0  0  0  0  0  0  0
   -7.1446    0.9698   -0.7831 C   0  0  0  0  0  0  0  0  0  0  0  0
   -5.1297    2.1562    0.2537 C   0  0  0  0  0  0  0  0  0  0  0  0
   -6.5217   -0.4268   -0.5968 C   0  0  0  0  0  0  0  0  0  0  0  0
   -4.4545    0.8333    0.1092 C   0  0  0  0  0  0  0  0  0  0  0  0
   -5.0660   -0.3358   -0.2976 C   0  0  0  0  0  0  0  0  0  0  0  0
   -6.9306    4.1773    1.1910 C   0  0  0  0  0  0  0  0  0  0  0  0
   -8.7775    3.0869    0.1080 C   0  0  0  0  0  0  0  0  0  0  0  0
   -3.0231   -1.0818   -0.0465 C   0  0  0  0  0  0  0  0  0  0  0  0
   -1.7737   -3.2485   -0.2948 C   0  0  0  0  0  0  0  0  0  0  0  0
   -0.4066   -3.8198   -0.1752 C   0  0  0  0  0  0  0  0  0  0  0  0
    0.5155   -3.2455    0.6997 C   0  0  0  0  0  0  0  0  0  0  0  0
    1.7985   -3.7814    0.8114 C   0  0  0  0  0  0  0  0  0  0  0  0
   -0.0457   -4.9302   -0.9387 C   0  0  0  0  0  0  0  0  0  0  0  0
    2.7850   -3.1669    1.7459 C   0  0  0  0  0  0  0  0  0  0  0  0
    2.1595   -4.8917    0.0480 C   0  0  0  0  0  0  0  0  0  0  0  0
    1.2375   -5.4659   -0.8273 C   0  0  0  0  0  0  0  0  0  0  0  0
    4.4705   -1.8858    0.4521 C   0  0  0  0  0  0  0  0  0  0  0  0
    4.9148   -0.5330    0.0287 C   0  0  0  0  0  0  0  0  0  0  0  0
    5.0719    1.9001   -0.2944 C   0  0  0  0  0  0  0  0  0  0  0  0
    6.0006   -0.1826   -0.7434 C   0  0  0  0  0  0  0  0  0  0  0  0
    6.0916    1.2269   -0.9304 C   0  0  0  0  0  0  0  0  0  0  0  0
    4.8119    3.3194   -0.2434 C   0  0  0  0  0  0  0  0  0  0  0  0
    5.7572    4.1832    0.2988 C   0  0  0  0  0  0  0  0  0  0  0  0
    3.6158    3.8281   -0.7374 C   0  0  0  0  0  0  0  0  0  0  0  0
    5.4605    5.5363    0.3235 C   0  0  0  0  0  0  0  0  0  0  0  0
    3.4149    5.1973   -0.6664 C   0  0  0  0  0  0  0  0  0  0  0  0
   -6.9259    1.5327    1.2791 H   0  0  0  0  0  0  0  0  0  0  0  0
   -6.8821    1.3538   -1.7784 H   0  0  0  0  0  0  0  0  0  0  0  0
   -8.2276    0.8135   -0.7702 H   0  0  0  0  0  0  0  0  0  0  0  0
   -4.7684    2.6373    1.1700 H   0  0  0  0  0  0  0  0  0  0  0  0
   -4.8450    2.7872   -0.5985 H   0  0  0  0  0  0  0  0  0  0  0  0
   -6.6875   -1.0279   -1.4977 H   0  0  0  0  0  0  0  0  0  0  0  0
   -7.0174   -0.9392    0.2365 H   0  0  0  0  0  0  0  0  0  0  0  0
   -7.5022    5.1107    1.1188 H   0  0  0  0  0  0  0  0  0  0  0  0
   -5.8838    4.4839    1.1033 H   0  0  0  0  0  0  0  0  0  0  0  0
   -7.1002    3.7606    2.1906 H   0  0  0  0  0  0  0  0  0  0  0  0
   -9.2761    4.0625    0.1674 H   0  0  0  0  0  0  0  0  0  0  0  0
   -9.1451    2.4814    0.9446 H   0  0  0  0  0  0  0  0  0  0  0  0
   -9.1283    2.6628   -0.8379 H   0  0  0  0  0  0  0  0  0  0  0  0
   -1.0679   -1.3484    0.2525 H   0  0  0  0  0  0  0  0  0  0  0  0
    0.2544   -2.4018    1.3323 H   0  0  0  0  0  0  0  0  0  0  0  0
   -0.7468   -5.3895   -1.6305 H   0  0  0  0  0  0  0  0  0  0  0  0
    2.3047   -2.9447    2.7060 H   0  0  0  0  0  0  0  0  0  0  0  0
    3.6076   -3.8593    1.9604 H   0  0  0  0  0  0  0  0  0  0  0  0
    3.1560   -5.3187    0.1230 H   0  0  0  0  0  0  0  0  0  0  0  0
    1.5193   -6.3292   -1.4230 H   0  0  0  0  0  0  0  0  0  0  0  0
    2.8410   -1.0688    1.4619 H   0  0  0  0  0  0  0  0  0  0  0  0
    6.7003   -0.8973   -1.1579 H   0  0  0  0  0  0  0  0  0  0  0  0
    6.8692    1.7137   -1.5060 H   0  0  0  0  0  0  0  0  0  0  0  0
    6.7017    3.8263    0.6968 H   0  0  0  0  0  0  0  0  0  0  0  0
    2.8532    3.1940   -1.1782 H   0  0  0  0  0  0  0  0  0  0  0  0
    6.1640    6.2518    0.7363 H   0  0  0  0  0  0  0  0  0  0  0  0
    2.4996    5.6445   -1.0401 H   0  0  0  0  0  0  0  0  0  0  0  0
  1 14  1  0  0  0  0
  1 18  1  0  0  0  0
  2 28  1  0  0  0  0
  2 29  1  0  0  0  0
  3 19  2  0  0  0  0
  4 27  2  0  0  0  0
  5 10  1  0  0  0  0
  5 16  1  0  0  0  0
  5 17  1  0  0  0  0
  6 15  1  0  0  0  0
  6 18  2  0  0  0  0
  7 18  1  0  0  0  0
  7 19  1  0  0  0  0
  7 50  1  0  0  0  0
  8 24  1  0  0  0  0
  8 27  1  0  0  0  0
  8 57  1  0  0  0  0
  9 35  2  0  0  0  0
  9 36  1  0  0  0  0
 10 11  1  0  0  0  0
 10 12  1  0  0  0  0
 10 37  1  0  0  0  0
 11 13  1  0  0  0  0
 11 38  1  0  0  0  0
 11 39  1  0  0  0  0
 12 14  1  0  0  0  0
 12 40  1  0  0  0  0
 12 41  1  0  0  0  0
 13 15  1  0  0  0  0
 13 42  1  0  0  0  0
 13 43  1  0  0  0  0
 14 15  2  0  0  0  0
 16 44  1  0  0  0  0
 16 45  1  0  0  0  0
 16 46  1  0  0  0  0
 17 47  1  0  0  0  0
 17 48  1  0  0  0  0
 17 49  1  0  0  0  0
 19 20  1  0  0  0  0
 20 21  1  0  0  0  0
 20 23  2  0  0  0  0
 21 22  2  0  0  0  0
 21 51  1  0  0  0  0
 22 24  1  0  0  0  0
 22 25  1  0  0  0  0
 23 26  1  0  0  0  0
 23 52  1  0  0  0  0
 24 53  1  0  0  0  0
 24 54  1  0  0  0  0
 25 26  2  0  0  0  0
 25 55  1  0  0  0  0
 26 56  1  0  0  0  0
 27 28  1  0  0  0  0
 28 30  2  0  0  0  0
 29 31  2  0  0  0  0
 29 32  1  0  0  0  0
 30 31  1  0  0  0  0
 30 58  1  0  0  0  0
 31 59  1  0  0  0  0
 32 33  2  0  0  0  0
 32 34  1  0  0  0  0
 33 35  1  0  0  0  0
 33 60  1  0  0  0  0
 34 36  2  0  0  0  0
 34 61  1  0  0  0  0
 35 62  1  0  0  0  0
 36 63  1  0  0  0  0
M  END
> <PUBCHEM_COMPOUND_CID>
84973061

> <PUBCHEM_CONFORMER_RMSD>
1.2

> <PUBCHEM_CONFORMER_DIVERSEORDER>
1
80
46
86
67
74
150
55
71
68
78
16
75
37
106
96
163
66
97
58
52
145
148
61
91
109
47
140
59
62
50
65
89
166
77
64
117
127
70
85
57
144
141
21
93
69
48
8
72
53
108
22
36
28
95
63
79
54
35
10
39
12
120
100
84
38
44
159
19
110
9
128
104
87
143
60
155
164
152
56
40
99
137
31
162
73
101
81
131
49
146
126
132
94
123
135
29
149
134
32
122
30
20
3
114
18
121
25
23
157
139
105
76
82
90
119
118
133
83
102
7
33
103
125
15
136
5
98
151
153
154
138
26
142
160
27
111
92
124
112
147
107
161
13
158
113
115
130
156
34
43
17
42
14
11
165
88
24
6
2
41
129
116
4
45
51

> <PUBCHEM_MMFF94_PARTIAL_CHARGES>
47
1 -0.08
10 0.27
12 0.18
13 0.18
14 -0.14
15 0.05
16 0.27
17 0.27
18 0.44
19 0.54
2 -0.08
20 0.09
21 -0.15
22 -0.14
23 -0.15
24 0.44
25 -0.15
26 -0.15
27 0.71
28 -0.05
29 -0.01
3 -0.57
30 -0.15
31 -0.15
32 0.05
33 -0.15
34 -0.15
35 0.16
36 0.16
4 -0.57
5 -0.81
50 0.37
51 0.15
52 0.15
55 0.15
56 0.15
57 0.37
58 0.15
59 0.15
6 -0.57
60 0.15
61 0.15
62 0.15
63 0.15
7 -0.49
8 -0.73
9 -0.62

> <PUBCHEM_EFFECTIVE_ROTOR_COUNT>
9.8

> <PUBCHEM_PHARMACOPHORE_FEATURES>
11
1 3 acceptor
1 4 acceptor
1 5 cation
1 7 donor
1 8 donor
1 9 acceptor
5 1 6 14 15 18 rings
5 2 28 29 30 31 rings
6 10 11 12 13 14 15 rings
6 20 21 22 23 25 26 rings
6 9 32 33 34 35 36 rings

> <PUBCHEM_HEAVY_ATOM_COUNT>
36

> <PUBCHEM_ATOM_DEF_STEREO_COUNT>
1

> <PUBCHEM_ATOM_UDEF_STEREO_COUNT>
0

> <PUBCHEM_BOND_DEF_STEREO_COUNT>
0

> <PUBCHEM_BOND_UDEF_STEREO_COUNT>
0

> <PUBCHEM_ISOTOPIC_ATOM_COUNT>
0

> <PUBCHEM_COMPONENT_COUNT>
1

> <PUBCHEM_CACTVS_TAUTO_COUNT>
6

> <PUBCHEM_CONFORMER_ID>
0510960500000001

> <PUBCHEM_MMFF94_ENERGY>
84.5523

> <PUBCHEM_FEATURE_SELFOVERLAP>
55.891

> <PUBCHEM_SHAPE_FINGERPRINT>
10462674 296 17764875693552913722
10673678 19 18411984637401630363
10675989 125 18409446973365303752
10864689 126 18337681914272284612
10917259 69 18337674235314182380
11146346 142 18199445819022877885
11273773 38 18410855421811241890
11374522 174 18187661239968245324
11476731 99 18053945327980069640
11479125 193 18337116781847528713
11505856 67 18125995207708179575
11578821 258 18050565146201188597
11621639 336 17979921502223667844
11761917 142 17620183678638154744
11828042 163 18411428315606094364
11828042 53 17759532449649135548
12559415 180 18192704760167231428
13944108 23 18268148656501327706
14251764 75 18410012164816867211
14747282 540 18261961735380272692
14790565 3 18338236071758055822
15001296 14 18335133219789471722
15198563 99 17767119074762623703
15320467 1 18338234865024973204
15400415 2 18337952414732393012
155225 5 17473544029022960564
15773879 134 18412257346676813357
15979999 66 17766847126445322974
16067689 134 18339369569187557004
19053607 189 18268698580188283888
19302320 297 18336824178642617874
20580484 21 18266742368762322389
20691028 202 18411415141685336901
21792965 106 17545040864048275360
22019808 48 18339091371519111549
397830 11 18189631449790564603
4408954 64 16669634508204123594
44280116 191 18337399257810665844
4487111 67 17762902460975613216
5109719 28 18338812134615338555
5265222 85 18268992167030758633
53794403 172 18339360751952280159
5951187 136 18342746208678748198
6036956 94 17469604469774761532
6176135 31 18337098051664318976
99344 41 18411416198173445177

> <PUBCHEM_SHAPE_MULTIPOLES>
711.92
22.3
10.66
1
33.52
2.1
-0.16
33.49
0.53
-12.01
0.47
-0.31
-0.37
-2.83

> <PUBCHEM_SHAPE_SELFOVERLAP>
1521.754

> <PUBCHEM_SHAPE_VOLUME>
397.5

> <PUBCHEM_COORDINATE_TYPE>
2
5
10

$$$$
84973062
  -OEChem-05102415103D

 60 64  0     1  0  0  0  0  0999 V2000
   -2.7203   -0.5770   -0.3751 S   0  0  0  0  0  0  0  0  0  0  0  0
    4.0594   -1.2420   -0.5479 S   0  0  0  0  0  0  0  0  0  0  0  0
   -2.3269    3.9691    0.6778 O   0  0  0  0  0  0  0  0  0  0  0  0
    5.3940    2.3860   -0.1355 O   0  0  0  0  0  0  0  0  0  0  0  0
    3.6836   -4.2756   -0.4184 O   0  0  0  0  0  0  0  0  0  0  0  0
   -7.3961   -2.9948   -0.0985 N   0  0  0  0  0  0  0  0  0  0  0  0
   -4.0439    1.5096    0.4063 N   0  0  0  0  0  0  0  0  0  0  0  0
   -1.6834    1.8013    0.0117 N   0  0  0  0  0  0  0  0  0  0  0  0
    3.5348    1.5619   -1.2507 N   0  0  0  0  0  0  0  0  0  0  0  0
    4.8088   -5.9822    0.5492 N   0  0  0  0  0  0  0  0  0  0  0  0
   -6.6611   -1.7435   -0.2718 C   0  0  1  0  0  0  0  0  0  0  0  0
   -7.0783   -0.7275    0.8159 C   0  0  0  0  0  0  0  0  0  0  0  0
   -5.1415   -2.0270   -0.2338 C   0  0  0  0  0  0  0  0  0  0  0  0
   -6.3756    0.6308    0.6298 C   0  0  0  0  0  0  0  0  0  0  0  0
   -4.3893   -0.7463   -0.0897 C   0  0  0  0  0  0  0  0  0  0  0  0
   -4.9292    0.4555    0.3229 C   0  0  0  0  0  0  0  0  0  0  0  0
   -7.0623   -3.9368   -1.1666 C   0  0  0  0  0  0  0  0  0  0  0  0
   -8.8367   -2.7429   -0.0717 C   0  0  0  0  0  0  0  0  0  0  0  0
   -2.8474    1.0813    0.0631 C   0  0  0  0  0  0  0  0  0  0  0  0
   -1.4720    3.1704    0.3101 C   0  0  0  0  0  0  0  0  0  0  0  0
   -0.0745    3.6610    0.1849 C   0  0  0  0  0  0  0  0  0  0  0  0
    0.8081    3.0360   -0.6961 C   0  0  0  0  0  0  0  0  0  0  0  0
    2.1197    3.4961   -0.8131 C   0  0  0  0  0  0  0  0  0  0  0  0
    0.3547    4.7464    0.9491 C   0  0  0  0  0  0  0  0  0  0  0  0
    3.0639    2.8273   -1.7540 C   0  0  0  0  0  0  0  0  0  0  0  0
    2.5489    4.5814   -0.0489 C   0  0  0  0  0  0  0  0  0  0  0  0
    1.6664    5.2063    0.8324 C   0  0  0  0  0  0  0  0  0  0  0  0
    4.6779    1.4464   -0.4717 C   0  0  0  0  0  0  0  0  0  0  0  0
    5.0443    0.0688   -0.0537 C   0  0  0  0  0  0  0  0  0  0  0  0
    5.0605   -2.3702    0.2628 C   0  0  0  0  0  0  0  0  0  0  0  0
    6.1115   -0.3464    0.7121 C   0  0  0  0  0  0  0  0  0  0  0  0
    6.1209   -1.7593    0.8953 C   0  0  0  0  0  0  0  0  0  0  0  0
    4.7594   -3.7564    0.2359 C   0  0  0  0  0  0  0  0  0  0  0  0
    5.4394   -4.7951    0.8216 C   0  0  0  0  0  0  0  0  0  0  0  0
    3.7828   -5.6127   -0.1836 C   0  0  0  0  0  0  0  0  0  0  0  0
   -6.9032   -1.2968   -1.2486 H   0  0  0  0  0  0  0  0  0  0  0  0
   -6.8338   -1.1287    1.8090 H   0  0  0  0  0  0  0  0  0  0  0  0
   -8.1503   -0.5079    0.8089 H   0  0  0  0  0  0  0  0  0  0  0  0
   -4.8135   -2.5261   -1.1531 H   0  0  0  0  0  0  0  0  0  0  0  0
   -4.8900   -2.6759    0.6154 H   0  0  0  0  0  0  0  0  0  0  0  0
   -6.5015    1.2382    1.5328 H   0  0  0  0  0  0  0  0  0  0  0  0
   -6.8446    1.1736   -0.1999 H   0  0  0  0  0  0  0  0  0  0  0  0
   -7.6871   -4.8353   -1.0936 H   0  0  0  0  0  0  0  0  0  0  0  0
   -6.0348   -4.3044   -1.0849 H   0  0  0  0  0  0  0  0  0  0  0  0
   -7.2121   -3.5083   -2.1644 H   0  0  0  0  0  0  0  0  0  0  0  0
   -9.3919   -3.6875   -0.1308 H   0  0  0  0  0  0  0  0  0  0  0  0
   -9.1724   -2.1148   -0.9050 H   0  0  0  0  0  0  0  0  0  0  0  0
   -9.1574   -2.3015    0.8769 H   0  0  0  0  0  0  0  0  0  0  0  0
   -0.8815    1.2337   -0.2452 H   0  0  0  0  0  0  0  0  0  0  0  0
    0.4949    2.2107   -1.3293 H   0  0  0  0  0  0  0  0  0  0  0  0
   -0.3150    5.2442    1.6454 H   0  0  0  0  0  0  0  0  0  0  0  0
    2.5667    2.6362   -2.7122 H   0  0  0  0  0  0  0  0  0  0  0  0
    3.9246    3.4710   -1.9711 H   0  0  0  0  0  0  0  0  0  0  0  0
    3.5684    4.9495   -0.1280 H   0  0  0  0  0  0  0  0  0  0  0  0
    2.0012    6.0501    1.4286 H   0  0  0  0  0  0  0  0  0  0  0  0
    2.9983    0.7288   -1.4751 H   0  0  0  0  0  0  0  0  0  0  0  0
    6.8539    0.3251    1.1245 H   0  0  0  0  0  0  0  0  0  0  0  0
    6.8769   -2.2837    1.4666 H   0  0  0  0  0  0  0  0  0  0  0  0
    6.3388   -4.7666    1.4197 H   0  0  0  0  0  0  0  0  0  0  0  0
    3.0159   -6.2361   -0.6180 H   0  0  0  0  0  0  0  0  0  0  0  0
  1 15  1  0  0  0  0
  1 19  1  0  0  0  0
  2 29  1  0  0  0  0
  2 30  1  0  0  0  0
  3 20  2  0  0  0  0
  4 28  2  0  0  0  0
  5 33  1  0  0  0  0
  5 35  1  0  0  0  0
  6 11  1  0  0  0  0
  6 17  1  0  0  0  0
  6 18  1  0  0  0  0
  7 16  1  0  0  0  0
  7 19  2  0  0  0  0
  8 19  1  0  0  0  0
  8 20  1  0  0  0  0
  8 49  1  0  0  0  0
  9 25  1  0  0  0  0
  9 28  1  0  0  0  0
  9 56  1  0  0  0  0
 10 34  1  0  0  0  0
 10 35  2  0  0  0  0
 11 12  1  0  0  0  0
 11 13  1  0  0  0  0
 11 36  1  0  0  0  0
 12 14  1  0  0  0  0
 12 37  1  0  0  0  0
 12 38  1  0  0  0  0
 13 15  1  0  0  0  0
 13 39  1  0  0  0  0
 13 40  1  0  0  0  0
 14 16  1  0  0  0  0
 14 41  1  0  0  0  0
 14 42  1  0  0  0  0
 15 16  2  0  0  0  0
 17 43  1  0  0  0  0
 17 44  1  0  0  0  0
 17 45  1  0  0  0  0
 18 46  1  0  0  0  0
 18 47  1  0  0  0  0
 18 48  1  0  0  0  0
 20 21  1  0  0  0  0
 21 22  1  0  0  0  0
 21 24  2  0  0  0  0
 22 23  2  0  0  0  0
 22 50  1  0  0  0  0
 23 25  1  0  0  0  0
 23 26  1  0  0  0  0
 24 27  1  0  0  0  0
 24 51  1  0  0  0  0
 25 52  1  0  0  0  0
 25 53  1  0  0  0  0
 26 27  2  0  0  0  0
 26 54  1  0  0  0  0
 27 55  1  0  0  0  0
 28 29  1  0  0  0  0
 29 31  2  0  0  0  0
 30 32  2  0  0  0  0
 30 33  1  0  0  0  0
 31 32  1  0  0  0  0
 31 57  1  0  0  0  0
 32 58  1  0  0  0  0
 33 34  2  0  0  0  0
 34 59  1  0  0  0  0
 35 60  1  0  0  0  0
M  END
> <PUBCHEM_COMPOUND_CID>
84973062

> <PUBCHEM_CONFORMER_RMSD>
1

> <PUBCHEM_CONFORMER_DIVERSEORDER>
1
76
123
63
314
93
79
128
212
94
182
101
290
32
304
54
83
186
117
152
271
179
66
121
88
215
61
119
275
285
296
106
270
216
257
168
283
85
231
218
295
68
82
265
311
175
118
278
227
55
84
305
163
105
100
188
87
91
19
147
260
35
120
193
166
220
268
116
164
210
132
109
177
169
228
18
291
154
255
161
219
230
288
69
139
150
243
10
293
112
171
214
203
50
263
127
308
202
44
31
75
286
269
77
28
73
173
309
125
72
115
196
96
51
235
20
22
59
266
53
185
289
208
52
310
167
241
313
221
108
207
122
195
254
81
107
226
205
151
261
103
262
206
204
302
312
277
92
60
259
217
134
232
17
170
249
41
48
156
104
124
160
145
78
233
111
141
273
40
272
213
181
209
247
43
223
267
178
172
248
236
194
237
131
38
14
13
190
3
165
98
281
130
251
279
189
252
146
199
133
25
102
64
138
298
113
183
306
280
153
276
49
110
114
62
148
245
174
176
95
23
15
284
258
242
155
5
297
282
301
57
240
21
24
99
264
97
6
46
222
65
238
303
33
86
47
187
191
140
16
244
234
126
239
224
12
250
90
136
256
180
287
198
307
149
274
300
36
9
71
30
29
229
135
246
42
70
26
197
200
225
294
37
211
201
192
7
80
39
142
129
137
89
292
184
143
8
299
58
4
74
159
67
34
157
162
56
2
144
45
253
158
11
27

> <PUBCHEM_MMFF94_PARTIAL_CHARGES>
44
1 -0.08
10 -0.57
11 0.27
13 0.18
14 0.18
15 -0.14
16 0.05
17 0.27
18 0.27
19 0.44
2 -0.08
20 0.54
21 0.09
22 -0.15
23 -0.14
24 -0.15
25 0.44
26 -0.15
27 -0.15
28 0.71
29 -0.05
3 -0.57
30 0.04
31 -0.15
32 -0.15
33 0.14
34 0.08
35 0.33
4 -0.57
49 0.37
5 -0.28
50 0.15
51 0.15
54 0.15
55 0.15
56 0.37
57 0.15
58 0.15
59 0.15
6 -0.81
60 0.15
7 -0.57
8 -0.49
9 -0.73

> <PUBCHEM_EFFECTIVE_ROTOR_COUNT>
9.8

> <PUBCHEM_PHARMACOPHORE_FEATURES>
10
1 3 acceptor
1 4 acceptor
1 6 cation
1 8 donor
1 9 donor
5 1 7 15 16 19 rings
5 2 29 30 31 32 rings
5 5 10 33 34 35 rings
6 11 12 13 14 15 16 rings
6 21 22 23 24 26 27 rings

> <PUBCHEM_HEAVY_ATOM_COUNT>
35

> <PUBCHEM_ATOM_DEF_STEREO_COUNT>
1

> <PUBCHEM_ATOM_UDEF_STEREO_COUNT>
0

> <PUBCHEM_BOND_DEF_STEREO_COUNT>
0

> <PUBCHEM_BOND_UDEF_STEREO_COUNT>
0

> <PUBCHEM_ISOTOPIC_ATOM_COUNT>
0

> <PUBCHEM_COMPONENT_COUNT>
1

> <PUBCHEM_CACTVS_TAUTO_COUNT>
6

> <PUBCHEM_CONFORMER_ID>
0510960600000001

> <PUBCHEM_MMFF94_ENERGY>
66.089

> <PUBCHEM_FEATURE_SELFOVERLAP>
50.816

> <PUBCHEM_SHAPE_FINGERPRINT>
10049733 168 17988655072648281263
10075450 59 17986690177045815135
10622 236 18337674109583672852
117089 54 18337959991333979218
11801155 225 17838335542405120743
12107183 9 18271541810179669825
12559416 138 18342165627826931494
12559416 39 17901917795852146466
12655387 17 18122924036099014597
13008946 335 17409925160812055840
13553639 21 18334020496706020882
13553644 42 18186790397522475795
13782708 43 18188491388996621501
13947947 140 18335146354100149807
13989917 61 18336267928685359594
15019793 15 17904762177236704170
15160629 178 18272370919546438375
15264996 154 18336279972295858694
15320467 1 18410575136625257794
15467298 65 18197775720837282847
15538507 19 17762333622960542402
15569901 51 18409448042596603555
15728490 83 18265336105641471025
16728300 4 18413386515085189149
17492 89 18265616468849321400
19301676 85 17905317430307388405
23569914 152 17978195342162359581
23569943 247 18407761456800471723
24204213 148 18262532416538629182
24893989 43 17700141194452868894
260245 28 18340766039334210167
3886686 26 17619634575347526284
4073 2 17619633918413124313
4408954 87 18057308682783388290
44344687 77 18114476621306084659
4756088 132 17758387483559110554
56633871 153 17977393733239253360
6057620 51 18335147462713752726
6201320 221 18340190991153787607
6201460 15 18193280693811296470
6441014 3 18122622752231909754
7970288 3 18410573942566242840
9555976 147 17774168898959123233
9831232 110 18337949090944157357

> <PUBCHEM_SHAPE_MULTIPOLES>
685.47
22.44
9.81
1.01
35.17
3.8
-0.17
31.17
1.15
-13.3
1.03
-0.4
-0.33
-3.35

> <PUBCHEM_SHAPE_SELFOVERLAP>
1466.742

> <PUBCHEM_SHAPE_VOLUME>
382.8

> <PUBCHEM_COORDINATE_TYPE>
2
5
10

$$$$
84973063
  -OEChem-05102415103D

 61 65  0     1  0  0  0  0  0999 V2000
   -2.7288   -0.5872   -0.3841 S   0  0  0  0  0  0  0  0  0  0  0  0
    4.0552   -1.1794   -0.5782 S   0  0  0  0  0  0  0  0  0  0  0  0
   -2.3800    3.9556    0.6984 O   0  0  0  0  0  0  0  0  0  0  0  0
    5.3546    2.4595   -0.1488 O   0  0  0  0  0  0  0  0  0  0  0  0
   -7.3779   -3.0559   -0.1098 N   0  0  0  0  0  0  0  0  0  0  0  0
   -4.0718    1.4801    0.4154 N   0  0  0  0  0  0  0  0  0  0  0  0
   -1.7157    1.7993    0.0157 N   0  0  0  0  0  0  0  0  0  0  0  0
    3.5007    1.6234   -1.2639 N   0  0  0  0  0  0  0  0  0  0  0  0
    5.0119   -5.9040    0.5957 N   0  0  0  0  0  0  0  0  0  0  0  0
    3.9000   -5.8082   -0.1530 N   0  0  0  0  0  0  0  0  0  0  0  0
   -6.6568   -1.7958   -0.2768 C   0  0  1  0  0  0  0  0  0  0  0  0
   -7.0813   -0.7916    0.8190 C   0  0  0  0  0  0  0  0  0  0  0  0
   -5.1341   -2.0635   -0.2453 C   0  0  0  0  0  0  0  0  0  0  0  0
   -6.3934    0.5752    0.6399 C   0  0  0  0  0  0  0  0  0  0  0  0
   -4.3950   -0.7760   -0.0947 C   0  0  0  0  0  0  0  0  0  0  0  0
   -4.9463    0.4173    0.3276 C   0  0  0  0  0  0  0  0  0  0  0  0
   -8.8211   -2.8194   -0.0770 C   0  0  0  0  0  0  0  0  0  0  0  0
   -7.0376   -3.9871   -1.1852 C   0  0  0  0  0  0  0  0  0  0  0  0
   -2.8720    1.0667    0.0658 C   0  0  0  0  0  0  0  0  0  0  0  0
   -1.5179    3.1685    0.3228 C   0  0  0  0  0  0  0  0  0  0  0  0
   -0.1260    3.6746    0.1967 C   0  0  0  0  0  0  0  0  0  0  0  0
    0.7604    3.0649   -0.6911 C   0  0  0  0  0  0  0  0  0  0  0  0
    2.0668    3.5396   -0.8090 C   0  0  0  0  0  0  0  0  0  0  0  0
    0.2941    4.7593    0.9669 C   0  0  0  0  0  0  0  0  0  0  0  0
    3.0150    2.8871   -1.7572 C   0  0  0  0  0  0  0  0  0  0  0  0
    2.4869    4.6241   -0.0388 C   0  0  0  0  0  0  0  0  0  0  0  0
    1.6005    5.2338    0.8494 C   0  0  0  0  0  0  0  0  0  0  0  0
    4.6474    1.5147   -0.4891 C   0  0  0  0  0  0  0  0  0  0  0  0
    5.0296    0.1383   -0.0816 C   0  0  0  0  0  0  0  0  0  0  0  0
    5.0698   -2.3019    0.2234 C   0  0  0  0  0  0  0  0  0  0  0  0
    6.1035   -0.2705    0.6782 C   0  0  0  0  0  0  0  0  0  0  0  0
    6.1268   -1.6842    0.8548 C   0  0  0  0  0  0  0  0  0  0  0  0
    4.8308   -3.7580    0.2316 C   0  0  0  0  0  0  0  0  0  0  0  0
    5.6073   -4.7045    0.8545 C   0  0  0  0  0  0  0  0  0  0  0  0
    3.7945   -4.4948   -0.3723 C   0  0  0  0  0  0  0  0  0  0  0  0
   -6.9065   -1.3451   -1.2499 H   0  0  0  0  0  0  0  0  0  0  0  0
   -6.8295   -1.1969    1.8086 H   0  0  0  0  0  0  0  0  0  0  0  0
   -8.1556   -0.5833    0.8167 H   0  0  0  0  0  0  0  0  0  0  0  0
   -4.8037   -2.5530   -1.1689 H   0  0  0  0  0  0  0  0  0  0  0  0
   -4.8732   -2.7154    0.5988 H   0  0  0  0  0  0  0  0  0  0  0  0
   -6.5229    1.1752    1.5474 H   0  0  0  0  0  0  0  0  0  0  0  0
   -6.8707    1.1186   -0.1846 H   0  0  0  0  0  0  0  0  0  0  0  0
   -9.3665   -3.7695   -0.1408 H   0  0  0  0  0  0  0  0  0  0  0  0
   -9.1659   -2.1893   -0.9050 H   0  0  0  0  0  0  0  0  0  0  0  0
   -9.1435   -2.3878    0.8756 H   0  0  0  0  0  0  0  0  0  0  0  0
   -7.6527   -4.8927   -1.1164 H   0  0  0  0  0  0  0  0  0  0  0  0
   -6.0060   -4.3444   -1.1091 H   0  0  0  0  0  0  0  0  0  0  0  0
   -7.1950   -3.5536   -2.1796 H   0  0  0  0  0  0  0  0  0  0  0  0
   -0.9087    1.2419   -0.2474 H   0  0  0  0  0  0  0  0  0  0  0  0
    0.4540    2.2406   -1.3290 H   0  0  0  0  0  0  0  0  0  0  0  0
   -0.3786    5.2453    1.6686 H   0  0  0  0  0  0  0  0  0  0  0  0
    2.5170    2.6972   -2.7152 H   0  0  0  0  0  0  0  0  0  0  0  0
    3.8683    3.5413   -1.9725 H   0  0  0  0  0  0  0  0  0  0  0  0
    3.5021    5.0035   -0.1184 H   0  0  0  0  0  0  0  0  0  0  0  0
    1.9283    6.0770    1.4503 H   0  0  0  0  0  0  0  0  0  0  0  0
    2.9724    0.7862   -1.4923 H   0  0  0  0  0  0  0  0  0  0  0  0
    6.8409    0.4061    1.0914 H   0  0  0  0  0  0  0  0  0  0  0  0
    6.8921   -2.1993    1.4219 H   0  0  0  0  0  0  0  0  0  0  0  0
    6.5100   -4.6470    1.4465 H   0  0  0  0  0  0  0  0  0  0  0  0
    2.9625   -4.1409   -0.9648 H   0  0  0  0  0  0  0  0  0  0  0  0
    5.3093   -6.8234    0.8975 H   0  0  0  0  0  0  0  0  0  0  0  0
  1 15  1  0  0  0  0
  1 19  1  0  0  0  0
  2 29  1  0  0  0  0
  2 30  1  0  0  0  0
  3 20  2  0  0  0  0
  4 28  2  0  0  0  0
  5 11  1  0  0  0  0
  5 17  1  0  0  0  0
  5 18  1  0  0  0  0
  6 16  1  0  0  0  0
  6 19  2  0  0  0  0
  7 19  1  0  0  0  0
  7 20  1  0  0  0  0
  7 49  1  0  0  0  0
  8 25  1  0  0  0  0
  8 28  1  0  0  0  0
  8 56  1  0  0  0  0
  9 10  1  0  0  0  0
  9 34  1  0  0  0  0
  9 61  1  0  0  0  0
 10 35  2  0  0  0  0
 11 12  1  0  0  0  0
 11 13  1  0  0  0  0
 11 36  1  0  0  0  0
 12 14  1  0  0  0  0
 12 37  1  0  0  0  0
 12 38  1  0  0  0  0
 13 15  1  0  0  0  0
 13 39  1  0  0  0  0
 13 40  1  0  0  0  0
 14 16  1  0  0  0  0
 14 41  1  0  0  0  0
 14 42  1  0  0  0  0
 15 16  2  0  0  0  0
 17 43  1  0  0  0  0
 17 44  1  0  0  0  0
 17 45  1  0  0  0  0
 18 46  1  0  0  0  0
 18 47  1  0  0  0  0
 18 48  1  0  0  0  0
 20 21  1  0  0  0  0
 21 22  1  0  0  0  0
 21 24  2  0  0  0  0
 22 23  2  0  0  0  0
 22 50  1  0  0  0  0
 23 25  1  0  0  0  0
 23 26  1  0  0  0  0
 24 27  1  0  0  0  0
 24 51  1  0  0  0  0
 25 52  1  0  0  0  0
 25 53  1  0  0  0  0
 26 27  2  0  0  0  0
 26 54  1  0  0  0  0
 27 55  1  0  0  0  0
 28 29  1  0  0  0  0
 29 31  2  0  0  0  0
 30 32  2  0  0  0  0
 30 33  1  0  0  0  0
 31 32  1  0  0  0  0
 31 57  1  0  0  0  0
 32 58  1  0  0  0  0
 33 34  2  0  0  0  0
 33 35  1  0  0  0  0
 34 59  1  0  0  0  0
 35 60  1  0  0  0  0
M  END
> <PUBCHEM_COMPOUND_CID>
84973063

> <PUBCHEM_CONFORMER_RMSD>
1

> <PUBCHEM_CONFORMER_DIVERSEORDER>
1
46
67
81
93
117
82
216
108
97
83
142
174
80
154
21
152
175
74
135
100
209
23
75
36
72
167
176
148
116
73
65
165
193
78
150
201
98
15
84
69
186
110
55
103
86
63
107
39
40
191
94
195
92
77
181
199
200
160
25
205
44
137
34
192
168
38
30
70
157
210
71
62
182
13
129
187
128
112
131
139
212
58
123
151
185
118
198
47
215
88
102
146
164
211
213
130
45
169
197
136
106
203
64
121
14
42
35
138
189
51
87
206
190
68
105
19
60
159
113
208
115
66
207
85
3
50
147
141
76
173
7
32
161
196
188
79
177
156
24
37
202
33
27
163
171
170
16
172
26
144
119
114
61
153
8
95
134
127
5
17
11
166
89
214
31
179
217
48
133
143
149
126
52
109
155
43
59
122
132
101
158
180
96
22
99
194
162
41
124
178
57
91
120
29
28
4
184
140
145
49
18
56
54
204
90
125
53
10
2
104
20
111
183
9
6
12

> <PUBCHEM_MMFF94_PARTIAL_CHARGES>
44
1 -0.08
10 -0.71
11 0.27
13 0.18
14 0.18
15 -0.14
16 0.05
17 0.27
18 0.27
19 0.44
2 -0.08
20 0.54
21 0.09
22 -0.15
23 -0.14
24 -0.15
25 0.44
26 -0.15
27 -0.15
28 0.71
29 -0.05
3 -0.57
30 0.04
31 -0.15
32 -0.15
34 -0.3
35 0.14
4 -0.57
49 0.37
5 -0.81
50 0.15
51 0.15
54 0.15
55 0.15
56 0.37
57 0.15
58 0.15
59 0.15
6 -0.57
60 0.15
61 0.27
7 -0.49
8 -0.73
9 0.3

> <PUBCHEM_EFFECTIVE_ROTOR_COUNT>
9.8

> <PUBCHEM_PHARMACOPHORE_FEATURES>
12
1 10 acceptor
1 3 acceptor
1 4 acceptor
1 5 cation
1 7 donor
1 8 donor
1 9 donor
5 1 6 15 16 19 rings
5 2 29 30 31 32 rings
5 9 10 33 34 35 rings
6 11 12 13 14 15 16 rings
6 21 22 23 24 26 27 rings

> <PUBCHEM_HEAVY_ATOM_COUNT>
35

> <PUBCHEM_ATOM_DEF_STEREO_COUNT>
1

> <PUBCHEM_ATOM_UDEF_STEREO_COUNT>
0

> <PUBCHEM_BOND_DEF_STEREO_COUNT>
0

> <PUBCHEM_BOND_UDEF_STEREO_COUNT>
0

> <PUBCHEM_ISOTOPIC_ATOM_COUNT>
0

> <PUBCHEM_COMPONENT_COUNT>
1

> <PUBCHEM_CACTVS_TAUTO_COUNT>
21

> <PUBCHEM_CONFORMER_ID>
0510960700000001

> <PUBCHEM_MMFF94_ENERGY>
66.6119

> <PUBCHEM_FEATURE_SELFOVERLAP>
60.966

> <PUBCHEM_SHAPE_FINGERPRINT>
10049733 168 17988655072627175759
10075450 59 17986408706348247519
10622 236 18337674109578411108
11399510 152 17915722203699903808
117089 54 18337959995644764274
11801155 225 17838335546689538527
12107183 9 18271541810184951073
12559416 138 18342447107103864710
12559416 39 17901917800162931498
13008946 335 17409925165085930632
13553639 21 18334301975956586810
13553644 42 18186790401806900099
13782708 43 18188491393302138309
13947947 140 18335427833366546527
15019793 15 17904762177247253666
15160629 178 18272370919535888871
15264996 154 18336279976590806510
15320467 1 18338517546887565402
15467298 65 18125718131078497967
15538507 19 17834391221298712370
15569901 51 18409448046859941835
15728490 83 18265336109920620553
16728300 4 18413387618891784229
17492 89 18265616473144327672
19301676 85 17905317434570785133
21585483 132 17841984774874963927
23569943 247 18335703867047000571
24204213 148 18334588915359844654
24893989 43 17986964148824858518
260245 28 18340766043613353215
2835820 82 18409450315172022403
3886686 26 17619353104628801228
4073 2 17619915397700626513
44344687 77 18114475521794508827
4756088 132 17758387483580209554
56633871 153 17977393733260345864
6057620 51 18335147462718994998
6201320 221 18340190991148506351
6201460 15 18193280698122068526
6441014 3 18122622752252989282
7970288 3 18410573942592590592
9555976 147 17846226492975952153
9831232 110 18337949095239131157

> <PUBCHEM_SHAPE_MULTIPOLES>
686.36
22.54
9.87
1.01
34.56
3.64
-0.17
32.13
1.17
-13.29
1.07
-0.39
-0.34
-3.46

> <PUBCHEM_SHAPE_SELFOVERLAP>
1466.119

> <PUBCHEM_SHAPE_VOLUME>
384.2

> <PUBCHEM_COORDINATE_TYPE>
2
5
10

$$$$
88558465
  -OEChem-05102415103D

 64 68  0     1  0  0  0  0  0999 V2000
   -2.2397    0.0979   -0.3452 S   0  0  0  0  0  0  0  0  0  0  0  0
   -1.0458   -4.3537    0.4852 O   0  0  0  0  0  0  0  0  0  0  0  0
    5.8032   -0.7296    0.3242 O   0  0  0  0  0  0  0  0  0  0  0  0
   -7.3004    1.5708   -0.2750 N   0  0  0  0  0  0  0  0  0  0  0  0
   -3.1853   -2.2540    0.1940 N   0  0  0  0  0  0  0  0  0  0  0  0
   -0.7898   -2.0607    0.0012 N   0  0  0  0  0  0  0  0  0  0  0  0
    4.0438   -0.7043   -1.1869 N   0  0  0  0  0  0  0  0  0  0  0  0
   -0.3311    3.9192   -0.0109 N   0  0  0  0  0  0  0  0  0  0  0  0
    0.0887    5.1608   -0.3086 N   0  0  0  0  0  0  0  0  0  0  0  0
   -6.2822    0.6272    0.1825 C   0  0  1  0  0  0  0  0  0  0  0  0
   -6.6662   -0.8113   -0.2331 C   0  0  0  0  0  0  0  0  0  0  0  0
   -4.9045    1.0367   -0.3879 C   0  0  0  0  0  0  0  0  0  0  0  0
   -5.6521   -1.8473    0.2881 C   0  0  0  0  0  0  0  0  0  0  0  0
   -3.9262   -0.0744   -0.1994 C   0  0  0  0  0  0  0  0  0  0  0  0
   -4.2514   -1.3863    0.0821 C   0  0  0  0  0  0  0  0  0  0  0  0
   -8.6227    1.1693    0.2043 C   0  0  0  0  0  0  0  0  0  0  0  0
   -6.9831    2.9252    0.1770 C   0  0  0  0  0  0  0  0  0  0  0  0
   -2.0730   -1.5816   -0.0143 C   0  0  0  0  0  0  0  0  0  0  0  0
   -0.3380   -3.3821    0.2418 C   0  0  0  0  0  0  0  0  0  0  0  0
    1.1306   -3.5979    0.1631 C   0  0  0  0  0  0  0  0  0  0  0  0
    1.9153   -2.7704   -0.6401 C   0  0  0  0  0  0  0  0  0  0  0  0
    3.2933   -2.9733   -0.7144 C   0  0  0  0  0  0  0  0  0  0  0  0
    1.7240   -4.6286    0.8922 C   0  0  0  0  0  0  0  0  0  0  0  0
    4.1324   -2.0895   -1.5740 C   0  0  0  0  0  0  0  0  0  0  0  0
    3.8868   -4.0039    0.0146 C   0  0  0  0  0  0  0  0  0  0  0  0
    3.1021   -4.8317    0.8177 C   0  0  0  0  0  0  0  0  0  0  0  0
    4.6614    1.3006    0.0542 C   0  0  0  0  0  0  0  0  0  0  0  0
    4.9001   -0.1325   -0.2559 C   0  0  0  0  0  0  0  0  0  0  0  0
    3.1602    3.1880    0.2019 C   0  0  0  0  0  0  0  0  0  0  0  0
    3.3841    1.8426   -0.0901 C   0  0  0  0  0  0  0  0  0  0  0  0
    5.7147    2.1042    0.4907 C   0  0  0  0  0  0  0  0  0  0  0  0
    1.8453    3.7462    0.0531 C   0  0  0  0  0  0  0  0  0  0  0  0
    4.2136    3.9917    0.6384 C   0  0  0  0  0  0  0  0  0  0  0  0
    5.4907    3.4497    0.7830 C   0  0  0  0  0  0  0  0  0  0  0  0
    0.6819    3.0341    0.2146 C   0  0  0  0  0  0  0  0  0  0  0  0
    1.4191    5.0488   -0.2681 C   0  0  0  0  0  0  0  0  0  0  0  0
   -6.2184    0.6457    1.2816 H   0  0  0  0  0  0  0  0  0  0  0  0
   -6.7205   -0.8769   -1.3284 H   0  0  0  0  0  0  0  0  0  0  0  0
   -7.6376   -1.1263    0.1601 H   0  0  0  0  0  0  0  0  0  0  0  0
   -4.5220    1.9315    0.1169 H   0  0  0  0  0  0  0  0  0  0  0  0
   -4.9796    1.2560   -1.4611 H   0  0  0  0  0  0  0  0  0  0  0  0
   -5.8139   -2.8072   -0.2146 H   0  0  0  0  0  0  0  0  0  0  0  0
   -5.8122   -2.0068    1.3613 H   0  0  0  0  0  0  0  0  0  0  0  0
   -9.3540    1.9673    0.0243 H   0  0  0  0  0  0  0  0  0  0  0  0
   -8.6358    0.9515    1.2785 H   0  0  0  0  0  0  0  0  0  0  0  0
   -9.0169    0.3130   -0.3516 H   0  0  0  0  0  0  0  0  0  0  0  0
   -7.7965    3.6148   -0.0798 H   0  0  0  0  0  0  0  0  0  0  0  0
   -6.1023    3.3322   -0.3292 H   0  0  0  0  0  0  0  0  0  0  0  0
   -6.8314    2.9798    1.2612 H   0  0  0  0  0  0  0  0  0  0  0  0
   -0.0961   -1.3355   -0.1557 H   0  0  0  0  0  0  0  0  0  0  0  0
    1.4752   -1.9846   -1.2479 H   0  0  0  0  0  0  0  0  0  0  0  0
    1.1312   -5.2810    1.5278 H   0  0  0  0  0  0  0  0  0  0  0  0
    5.1850   -2.3949   -1.5525 H   0  0  0  0  0  0  0  0  0  0  0  0
    3.7976   -2.1648   -2.6150 H   0  0  0  0  0  0  0  0  0  0  0  0
    4.9591   -4.1740   -0.0321 H   0  0  0  0  0  0  0  0  0  0  0  0
    3.5644   -5.6333    1.3863 H   0  0  0  0  0  0  0  0  0  0  0  0
    3.3501   -0.1416   -1.6673 H   0  0  0  0  0  0  0  0  0  0  0  0
    2.5550    1.2178   -0.4095 H   0  0  0  0  0  0  0  0  0  0  0  0
    6.7175    1.7012    0.6054 H   0  0  0  0  0  0  0  0  0  0  0  0
    4.0648    5.0417    0.8780 H   0  0  0  0  0  0  0  0  0  0  0  0
    6.3109    4.0752    1.1232 H   0  0  0  0  0  0  0  0  0  0  0  0
    0.4724    2.0055    0.4731 H   0  0  0  0  0  0  0  0  0  0  0  0
    2.0156    5.9256   -0.4781 H   0  0  0  0  0  0  0  0  0  0  0  0
   -1.3277    3.7449    0.0237 H   0  0  0  0  0  0  0  0  0  0  0  0
  1 14  1  0  0  0  0
  1 18  1  0  0  0  0
  2 19  2  0  0  0  0
  3 28  2  0  0  0  0
  4 10  1  0  0  0  0
  4 16  1  0  0  0  0
  4 17  1  0  0  0  0
  5 15  1  0  0  0  0
  5 18  2  0  0  0  0
  6 18  1  0  0  0  0
  6 19  1  0  0  0  0
  6 50  1  0  0  0  0
  7 24  1  0  0  0  0
  7 28  1  0  0  0  0
  7 57  1  0  0  0  0
  8  9  1  0  0  0  0
  8 35  1  0  0  0  0
  8 64  1  0  0  0  0
  9 36  2  0  0  0  0
 10 11  1  0  0  0  0
 10 12  1  0  0  0  0
 10 37  1  0  0  0  0
 11 13  1  0  0  0  0
 11 38  1  0  0  0  0
 11 39  1  0  0  0  0
 12 14  1  0  0  0  0
 12 40  1  0  0  0  0
 12 41  1  0  0  0  0
 13 15  1  0  0  0  0
 13 42  1  0  0  0  0
 13 43  1  0  0  0  0
 14 15  2  0  0  0  0
 16 44  1  0  0  0  0
 16 45  1  0  0  0  0
 16 46  1  0  0  0  0
 17 47  1  0  0  0  0
 17 48  1  0  0  0  0
 17 49  1  0  0  0  0
 19 20  1  0  0  0  0
 20 21  1  0  0  0  0
 20 23  2  0  0  0  0
 21 22  2  0  0  0  0
 21 51  1  0  0  0  0
 22 24  1  0  0  0  0
 22 25  1  0  0  0  0
 23 26  1  0  0  0  0
 23 52  1  0  0  0  0
 24 53  1  0  0  0  0
 24 54  1  0  0  0  0
 25 26  2  0  0  0  0
 25 55  1  0  0  0  0
 26 56  1  0  0  0  0
 27 28  1  0  0  0  0
 27 30  1  0  0  0  0
 27 31  2  0  0  0  0
 29 30  2  0  0  0  0
 29 32  1  0  0  0  0
 29 33  1  0  0  0  0
 30 58  1  0  0  0  0
 31 34  1  0  0  0  0
 31 59  1  0  0  0  0
 32 35  2  0  0  0  0
 32 36  1  0  0  0  0
 33 34  2  0  0  0  0
 33 60  1  0  0  0  0
 34 61  1  0  0  0  0
 35 62  1  0  0  0  0
 36 63  1  0  0  0  0
M  END
> <PUBCHEM_COMPOUND_CID>
88558465

> <PUBCHEM_CONFORMER_RMSD>
1.2

> <PUBCHEM_CONFORMER_DIVERSEORDER>
1
46
54
152
126
55
247
124
74
59
249
33
243
167
220
212
168
159
15
31
175
213
60
32
130
25
263
144
215
255
151
269
62
132
23
176
67
225
27
183
200
190
158
274
119
206
260
133
219
38
160
163
145
123
87
117
11
264
81
89
240
154
283
277
235
209
70
111
161
20
68
192
90
116
218
135
137
178
233
259
224
118
142
136
207
65
182
242
147
170
73
43
41
179
196
45
48
148
275
102
36
19
7
92
211
165
172
125
98
134
237
201
42
47
93
131
82
226
72
53
250
276
128
14
77
202
228
157
96
267
76
169
110
86
85
64
232
195
80
115
24
208
37
149
78
139
270
268
22
5
91
66
171
9
223
236
222
180
121
18
61
29
129
114
75
69
109
26
174
107
256
21
238
184
181
280
252
79
217
84
52
162
101
112
221
83
138
227
205
248
216
177
57
273
141
153
122
229
193
281
266
282
100
185
245
106
191
199
251
127
108
246
194
258
204
244
239
189
156
58
254
13
265
203
150
44
94
146
198
10
97
28
99
261
6
50
278
186
95
230
143
35
155
30
241
113
279
272
71
271
16
234
164
140
262
120
56
166
88
197
4
34
210
105
104
214
63
103
17
173
12
2
257
231
39
40
49
253
51
187
3
188
8

> <PUBCHEM_MMFF94_PARTIAL_CHARGES>
48
1 -0.08
10 0.27
12 0.18
13 0.18
14 -0.14
15 0.05
16 0.27
17 0.27
18 0.44
19 0.54
2 -0.57
20 0.09
21 -0.15
22 -0.14
23 -0.15
24 0.44
25 -0.15
26 -0.15
27 0.09
28 0.54
29 0.05
3 -0.57
30 -0.15
31 -0.15
32 -0.05
33 -0.15
34 -0.15
35 -0.3
36 0.14
4 -0.81
5 -0.57
50 0.37
51 0.15
52 0.15
55 0.15
56 0.15
57 0.37
58 0.15
59 0.15
6 -0.49
60 0.15
61 0.15
62 0.15
63 0.15
64 0.27
7 -0.73
8 0.3
9 -0.71

> <PUBCHEM_EFFECTIVE_ROTOR_COUNT>
9.8

> <PUBCHEM_PHARMACOPHORE_FEATURES>
12
1 2 acceptor
1 3 acceptor
1 4 cation
1 6 donor
1 7 donor
1 8 donor
1 9 acceptor
5 1 5 14 15 18 rings
5 8 9 32 35 36 rings
6 10 11 12 13 14 15 rings
6 20 21 22 23 25 26 rings
6 27 29 30 31 33 34 rings

> <PUBCHEM_HEAVY_ATOM_COUNT>
36

> <PUBCHEM_ATOM_DEF_STEREO_COUNT>
1

> <PUBCHEM_ATOM_UDEF_STEREO_COUNT>
0

> <PUBCHEM_BOND_DEF_STEREO_COUNT>
0

> <PUBCHEM_BOND_UDEF_STEREO_COUNT>
0

> <PUBCHEM_ISOTOPIC_ATOM_COUNT>
0

> <PUBCHEM_COMPONENT_COUNT>
1

> <PUBCHEM_CACTVS_TAUTO_COUNT>
6

> <PUBCHEM_CONFORMER_ID>
05474B8100000001

> <PUBCHEM_MMFF94_ENERGY>
84.3597

> <PUBCHEM_FEATURE_SELFOVERLAP>
60.966

> <PUBCHEM_SHAPE_FINGERPRINT>
10050765 1 18411136949282718703
10439779 11 17979906431141384544
10675989 125 18410291402695605650
10864689 126 18339091462098066350
11170278 61 18199176460085300967
11456790 92 18042125358125359962
11828042 226 18192143808180250613
12173638 102 17099455667218220797
12173638 148 18264486364924331211
12677640 9 17836365217662311559
12857493 111 17475797550876712079
12925494 130 18338234968056566291
13008946 282 18044358462189128683
13165053 371 18338238159792682797
1361 2 18338797917951887504
14117953 113 18341051900252563188
14295345 954 18334862744682961601
14556957 393 16845021121876498787
14725015 67 18339074896699011378
14849402 71 18338806611862532233
15274700 259 17532918408980382373
15320467 1 18410573993952713616
15351339 4 18118116978949641361
15400415 2 18122342651539660833
15483637 11 17761212116050479572
15773879 134 18269547412024140277
15890870 6 18335708269393688366
15927050 60 18269271434241798463
16067689 134 17766858130135249449
20156587 191 18116987794569996869
20580484 21 18411139092187160433
20715895 44 18340767139293542306
21049683 118 17530963579388853715
21133410 38 17988102013882677488
21344244 78 17682664139534924026
22122407 14 18268159673530584379
23569914 2 17318124486818559077
354706 109 17694760206200924904
5109719 28 18338806727135767515
5265222 85 17977390764878833460
57676310 18 18125158235031336361
5951187 136 18272095972139224270
99344 41 18340766031118159129

> <PUBCHEM_SHAPE_MULTIPOLES>
703.09
18.37
8.72
0.85
34.49
0.93
0.11
9.25
-0.59
-10.6
-1.33
-0.7
-0.34
1.14

> <PUBCHEM_SHAPE_SELFOVERLAP>
1521.084

> <PUBCHEM_SHAPE_VOLUME>
389.1

> <PUBCHEM_COORDINATE_TYPE>
2
5
10

$$$$
84973064
  -OEChem-05102415103D

 64 68  0     1  0  0  0  0  0999 V2000
   -3.1100   -0.7988   -0.4933 S   0  0  0  0  0  0  0  0  0  0  0  0
   -3.1057    3.6464    0.9800 O   0  0  0  0  0  0  0  0  0  0  0  0
    4.6818    2.9459   -0.2989 O   0  0  0  0  0  0  0  0  0  0  0  0
   -7.5101   -3.6921   -0.2621 N   0  0  0  0  0  0  0  0  0  0  0  0
   -4.5881    1.0619    0.5410 N   0  0  0  0  0  0  0  0  0  0  0  0
   -2.2897    1.6260    0.0803 N   0  0  0  0  0  0  0  0  0  0  0  0
    2.8592    2.0389   -1.4101 N   0  0  0  0  0  0  0  0  0  0  0  0
    6.0290   -3.2262    0.3368 N   0  0  0  0  0  0  0  0  0  0  0  0
    7.4791   -4.8563    0.7515 N   0  0  0  0  0  0  0  0  0  0  0  0
   -6.9093   -2.3622   -0.3427 C   0  0  1  0  0  0  0  0  0  0  0  0
   -7.3675   -1.4988    0.8548 C   0  0  0  0  0  0  0  0  0  0  0  0
   -5.3694   -2.4930   -0.3948 C   0  0  0  0  0  0  0  0  0  0  0  0
   -6.8096   -0.0650    0.7731 C   0  0  0  0  0  0  0  0  0  0  0  0
   -4.7383   -1.1617   -0.1576 C   0  0  0  0  0  0  0  0  0  0  0  0
   -5.3705   -0.0641    0.3917 C   0  0  0  0  0  0  0  0  0  0  0  0
   -8.9652   -3.5907   -0.1521 C   0  0  0  0  0  0  0  0  0  0  0  0
   -7.1410   -4.4923   -1.4295 C   0  0  0  0  0  0  0  0  0  0  0  0
   -3.3746    0.7902    0.1091 C   0  0  0  0  0  0  0  0  0  0  0  0
   -2.1971    2.9758    0.5018 C   0  0  0  0  0  0  0  0  0  0  0  0
   -0.8616    3.6147    0.3678 C   0  0  0  0  0  0  0  0  0  0  0  0
    0.0321    3.1667   -0.6050 C   0  0  0  0  0  0  0  0  0  0  0  0
    1.2837    3.7689   -0.7324 C   0  0  0  0  0  0  0  0  0  0  0  0
   -0.5037    4.6649    1.2132 C   0  0  0  0  0  0  0  0  0  0  0  0
    2.2408    3.2891   -1.7711 C   0  0  0  0  0  0  0  0  0  0  0  0
    1.6418    4.8189    0.1131 C   0  0  0  0  0  0  0  0  0  0  0  0
    0.7481    5.2670    1.0858 C   0  0  0  0  0  0  0  0  0  0  0  0
    4.5675    0.6071   -0.4233 C   0  0  0  0  0  0  0  0  0  0  0  0
    4.0461    1.9718   -0.6931 C   0  0  0  0  0  0  0  0  0  0  0  0
    5.5452   -1.9557    0.0845 C   0  0  0  0  0  0  0  0  0  0  0  0
    5.9359    0.4060   -0.2415 C   0  0  0  0  0  0  0  0  0  0  0  0
    3.6881   -0.4731   -0.3511 C   0  0  0  0  0  0  0  0  0  0  0  0
    6.4247   -0.8755    0.0124 C   0  0  0  0  0  0  0  0  0  0  0  0
    4.1769   -1.7546   -0.0973 C   0  0  0  0  0  0  0  0  0  0  0  0
    5.2882   -4.3703    0.4342 C   0  0  0  0  0  0  0  0  0  0  0  0
    7.3381   -3.5675    0.5344 C   0  0  0  0  0  0  0  0  0  0  0  0
    6.2049   -5.3625    0.6904 C   0  0  0  0  0  0  0  0  0  0  0  0
   -7.2423   -1.8536   -1.2608 H   0  0  0  0  0  0  0  0  0  0  0  0
   -8.4547   -1.3890    0.9130 H   0  0  0  0  0  0  0  0  0  0  0  0
   -7.0356   -1.9636    1.7933 H   0  0  0  0  0  0  0  0  0  0  0  0
   -5.0414   -2.8689   -1.3710 H   0  0  0  0  0  0  0  0  0  0  0  0
   -5.0138   -3.1891    0.3762 H   0  0  0  0  0  0  0  0  0  0  0  0
   -6.9480    0.4402    1.7353 H   0  0  0  0  0  0  0  0  0  0  0  0
   -7.3701    0.5022    0.0201 H   0  0  0  0  0  0  0  0  0  0  0  0
   -9.4286   -4.5770   -0.2800 H   0  0  0  0  0  0  0  0  0  0  0  0
   -9.4016   -2.9252   -0.9059 H   0  0  0  0  0  0  0  0  0  0  0  0
   -9.2789   -3.2738    0.8473 H   0  0  0  0  0  0  0  0  0  0  0  0
   -7.6715   -5.4523   -1.4189 H   0  0  0  0  0  0  0  0  0  0  0  0
   -6.0799   -4.7601   -1.4261 H   0  0  0  0  0  0  0  0  0  0  0  0
   -7.3816   -3.9904   -2.3739 H   0  0  0  0  0  0  0  0  0  0  0  0
   -1.4506    1.1686   -0.2631 H   0  0  0  0  0  0  0  0  0  0  0  0
   -0.2298    2.3744   -1.3006 H   0  0  0  0  0  0  0  0  0  0  0  0
   -1.1829    5.0260    1.9809 H   0  0  0  0  0  0  0  0  0  0  0  0
    1.7170    3.1364   -2.7220 H   0  0  0  0  0  0  0  0  0  0  0  0
    3.0217    4.0352   -1.9610 H   0  0  0  0  0  0  0  0  0  0  0  0
    2.6143    5.2962    0.0269 H   0  0  0  0  0  0  0  0  0  0  0  0
    1.0276    6.0837    1.7450 H   0  0  0  0  0  0  0  0  0  0  0  0
    2.4118    1.1956   -1.7526 H   0  0  0  0  0  0  0  0  0  0  0  0
    6.6368    1.2348   -0.2985 H   0  0  0  0  0  0  0  0  0  0  0  0
    2.6134   -0.3554   -0.4537 H   0  0  0  0  0  0  0  0  0  0  0  0
    7.4973   -0.9682    0.1437 H   0  0  0  0  0  0  0  0  0  0  0  0
    3.4441   -2.5527   -0.0452 H   0  0  0  0  0  0  0  0  0  0  0  0
    4.2152   -4.4300    0.3251 H   0  0  0  0  0  0  0  0  0  0  0  0
    8.1696   -2.8770    0.5179 H   0  0  0  0  0  0  0  0  0  0  0  0
    6.0123   -6.4157    0.8339 H   0  0  0  0  0  0  0  0  0  0  0  0
  1 14  1  0  0  0  0
  1 18  1  0  0  0  0
  2 19  2  0  0  0  0
  3 28  2  0  0  0  0
  4 10  1  0  0  0  0
  4 16  1  0  0  0  0
  4 17  1  0  0  0  0
  5 15  1  0  0  0  0
  5 18  2  0  0  0  0
  6 18  1  0  0  0  0
  6 19  1  0  0  0  0
  6 50  1  0  0  0  0
  7 24  1  0  0  0  0
  7 28  1  0  0  0  0
  7 57  1  0  0  0  0
  8 29  1  0  0  0  0
  8 34  1  0  0  0  0
  8 35  1  0  0  0  0
  9 35  2  0  0  0  0
  9 36  1  0  0  0  0
 10 11  1  0  0  0  0
 10 12  1  0  0  0  0
 10 37  1  0  0  0  0
 11 13  1  0  0  0  0
 11 38  1  0  0  0  0
 11 39  1  0  0  0  0
 12 14  1  0  0  0  0
 12 40  1  0  0  0  0
 12 41  1  0  0  0  0
 13 15  1  0  0  0  0
 13 42  1  0  0  0  0
 13 43  1  0  0  0  0
 14 15  2  0  0  0  0
 16 44  1  0  0  0  0
 16 45  1  0  0  0  0
 16 46  1  0  0  0  0
 17 47  1  0  0  0  0
 17 48  1  0  0  0  0
 17 49  1  0  0  0  0
 19 20  1  0  0  0  0
 20 21  1  0  0  0  0
 20 23  2  0  0  0  0
 21 22  2  0  0  0  0
 21 51  1  0  0  0  0
 22 24  1  0  0  0  0
 22 25  1  0  0  0  0
 23 26  1  0  0  0  0
 23 52  1  0  0  0  0
 24 53  1  0  0  0  0
 24 54  1  0  0  0  0
 25 26  2  0  0  0  0
 25 55  1  0  0  0  0
 26 56  1  0  0  0  0
 27 28  1  0  0  0  0
 27 30  2  0  0  0  0
 27 31  1  0  0  0  0
 29 32  2  0  0  0  0
 29 33  1  0  0  0  0
 30 32  1  0  0  0  0
 30 58  1  0  0  0  0
 31 33  2  0  0  0  0
 31 59  1  0  0  0  0
 32 60  1  0  0  0  0
 33 61  1  0  0  0  0
 34 36  2  0  0  0  0
 34 62  1  0  0  0  0
 35 63  1  0  0  0  0
 36 64  1  0  0  0  0
M  END
> <PUBCHEM_COMPOUND_CID>
84973064

> <PUBCHEM_CONFORMER_RMSD>
1

> <PUBCHEM_CONFORMER_DIVERSEORDER>
1
184
89
112
132
47
179
28
167
160
136
73
103
64
60
42
227
30
38
69
192
183
197
36
34
181
194
175
117
156
171
9
221
138
93
116
200
123
46
22
41
185
63
62
191
71
79
180
8
151
44
235
99
6
74
78
157
27
53
196
161
213
223
65
158
195
172
152
147
187
190
81
137
198
224
211
52
217
70
113
143
83
173
11
162
127
50
97
220
66
14
7
40
188
178
144
108
45
119
238
230
149
155
59
199
49
233
229
32
126
159
92
107
80
140
129
104
201
85
33
118
21
94
10
48
124
101
166
86
58
96
88
102
135
57
218
95
177
115
240
23
228
35
68
207
16
182
134
29
214
164
111
226
37
100
51
5
176
26
77
130
12
121
84
216
105
142
203
169
215
39
90
189
146
87
25
125
170
55
120
237
239
154
186
75
193
141
122
43
168
54
110
231
163
234
72
17
204
153
165
236
31
106
82
20
205
150
202
3
232
145
114
91
209
219
174
2
109
15
210
131
139
76
61
225
133
56
19
67
18
148
24
208
222
212
206
128
13
4
98

> <PUBCHEM_MMFF94_PARTIAL_CHARGES>
48
1 -0.08
10 0.27
12 0.18
13 0.18
14 -0.14
15 0.05
16 0.27
17 0.27
18 0.44
19 0.54
2 -0.57
20 0.09
21 -0.15
22 -0.14
23 -0.15
24 0.44
25 -0.15
26 -0.15
27 0.09
28 0.54
29 -0.02
3 -0.57
30 -0.15
31 -0.15
32 -0.15
33 -0.15
34 -0.3
35 0.04
36 0.08
4 -0.81
5 -0.57
50 0.37
51 0.15
52 0.15
55 0.15
56 0.15
57 0.37
58 0.15
59 0.15
6 -0.49
60 0.15
61 0.15
62 0.15
63 0.15
64 0.15
7 -0.73
8 0.33
9 -0.57

> <PUBCHEM_EFFECTIVE_ROTOR_COUNT>
9.8

> <PUBCHEM_PHARMACOPHORE_FEATURES>
11
1 2 acceptor
1 3 acceptor
1 4 cation
1 6 donor
1 7 donor
3 8 9 35 cation
5 1 5 14 15 18 rings
5 8 9 34 35 36 rings
6 10 11 12 13 14 15 rings
6 20 21 22 23 25 26 rings
6 27 29 30 31 32 33 rings

> <PUBCHEM_HEAVY_ATOM_COUNT>
36

> <PUBCHEM_ATOM_DEF_STEREO_COUNT>
1

> <PUBCHEM_ATOM_UDEF_STEREO_COUNT>
0

> <PUBCHEM_BOND_DEF_STEREO_COUNT>
0

> <PUBCHEM_BOND_UDEF_STEREO_COUNT>
0

> <PUBCHEM_ISOTOPIC_ATOM_COUNT>
0

> <PUBCHEM_COMPONENT_COUNT>
1

> <PUBCHEM_CACTVS_TAUTO_COUNT>
6

> <PUBCHEM_CONFORMER_ID>
0510960800000001

> <PUBCHEM_MMFF94_ENERGY>
91.3264

> <PUBCHEM_FEATURE_SELFOVERLAP>
55.891

> <PUBCHEM_SHAPE_FINGERPRINT>
10258705 36 17898861420780545651
10622 236 18408888404089016444
11409948 35 18336545032529893167
11607047 403 18339352081325835864
117089 54 18408609132441078154
11761917 116 18337117744769957278
12559416 138 18342167865488912558
13008946 335 17195443448697944920
13008946 62 11746927669423395753
13553639 21 18337967769641630403
13947947 140 18335709338365934279
14040222 275 18264510432861008438
14344974 204 18123189005516724934
14747282 305 18335711577009038673
15569901 51 18408886217697929427
15728490 83 18337111163787691845
15803439 3 16306526295305868132
16728300 4 18341894095783218413
16728433 281 10950604221439710730
16993427 108 18342454859498162463
17324776 126 18335980861745892058
17492 89 18336829697907824708
19303781 99 17678191399510221112
19841028 212 18334857195115580280
20609170 45 18335969876416320487
208703 8 18262796259878010594
21136928 87 18122897897001254936
21360442 33 18265613363566627111
21362267 20 17687740542546594378
23523788 1 18196061496431300880
23569914 152 18123437581270068429
23569943 247 18410016572482130515
24204213 148 18334305275735655324
24893989 43 18057616558454817094
24983565 74 18336823100379168018
2835820 82 18337673126558394827
3504750 166 18194688068415515561
4073 2 17405150012145588585
46848820 9 18413102845228384455
4756088 132 18269545212579209455
50080093 196 17174334577848324666
6057620 51 18334301955562398158
6058803 2 18192739781647106780
6201320 221 18339067298749443351
6201320 77 17389420222599011193
6201460 15 18337393712997135694
6441014 3 18338796689638719898
9555976 147 17917161498363552169
96874 4 18410857672326450151

> <PUBCHEM_SHAPE_MULTIPOLES>
703.09
25.65
9.68
1.07
20.71
0.17
0.17
-48.99
-1.22
-8.57
-1.61
0.14
0.49
-5.16

> <PUBCHEM_SHAPE_SELFOVERLAP>
1519.77

> <PUBCHEM_SHAPE_VOLUME>
389.2

> <PUBCHEM_COORDINATE_TYPE>
2
5
10

$$$$
84973065
  -OEChem-05102415103D

 63 67  0     1  0  0  0  0  0999 V2000
   -3.0869   -0.7847   -0.4943 S   0  0  0  0  0  0  0  0  0  0  0  0
   -3.0877    3.6605    0.9791 O   0  0  0  0  0  0  0  0  0  0  0  0
    4.7018    2.9659   -0.2909 O   0  0  0  0  0  0  0  0  0  0  0  0
    5.1586   -4.2621    0.4006 O   0  0  0  0  0  0  0  0  0  0  0  0
   -7.4851   -3.6813   -0.2682 N   0  0  0  0  0  0  0  0  0  0  0  0
   -4.5676    1.0748    0.5384 N   0  0  0  0  0  0  0  0  0  0  0  0
   -2.2692    1.6407    0.0803 N   0  0  0  0  0  0  0  0  0  0  0  0
    2.8812    2.0575   -1.4042 N   0  0  0  0  0  0  0  0  0  0  0  0
    7.2009   -5.1639    0.7613 N   0  0  0  0  0  0  0  0  0  0  0  0
   -6.8852   -2.3510   -0.3482 C   0  0  1  0  0  0  0  0  0  0  0  0
   -7.3455   -1.4880    0.8489 C   0  0  0  0  0  0  0  0  0  0  0  0
   -5.3451   -2.4806   -0.3985 C   0  0  0  0  0  0  0  0  0  0  0  0
   -6.7886   -0.0538    0.7678 C   0  0  0  0  0  0  0  0  0  0  0  0
   -4.7153   -1.1489   -0.1605 C   0  0  0  0  0  0  0  0  0  0  0  0
   -5.3490   -0.0517    0.3881 C   0  0  0  0  0  0  0  0  0  0  0  0
   -7.1141   -4.4812   -1.4353 C   0  0  0  0  0  0  0  0  0  0  0  0
   -8.9404   -3.5810   -0.1599 C   0  0  0  0  0  0  0  0  0  0  0  0
   -3.3535    0.8041    0.1078 C   0  0  0  0  0  0  0  0  0  0  0  0
   -2.1780    2.9905    0.5019 C   0  0  0  0  0  0  0  0  0  0  0  0
   -0.8429    3.6304    0.3695 C   0  0  0  0  0  0  0  0  0  0  0  0
    0.0522    3.1832   -0.6024 C   0  0  0  0  0  0  0  0  0  0  0  0
    1.3035    3.7863   -0.7283 C   0  0  0  0  0  0  0  0  0  0  0  0
   -0.4867    4.6809    1.2153 C   0  0  0  0  0  0  0  0  0  0  0  0
    2.2622    3.3073   -1.7659 C   0  0  0  0  0  0  0  0  0  0  0  0
    1.6599    4.8366    0.1176 C   0  0  0  0  0  0  0  0  0  0  0  0
    0.7647    5.2840    1.0893 C   0  0  0  0  0  0  0  0  0  0  0  0
    4.0672    1.9913   -0.6859 C   0  0  0  0  0  0  0  0  0  0  0  0
    4.5894    0.6270   -0.4156 C   0  0  0  0  0  0  0  0  0  0  0  0
    5.5717   -1.9352    0.0866 C   0  0  0  0  0  0  0  0  0  0  0  0
    5.9584    0.4277   -0.2361 C   0  0  0  0  0  0  0  0  0  0  0  0
    3.7117   -0.4547   -0.3441 C   0  0  0  0  0  0  0  0  0  0  0  0
    6.4494   -0.8534    0.0149 C   0  0  0  0  0  0  0  0  0  0  0  0
    4.2029   -1.7358   -0.0932 C   0  0  0  0  0  0  0  0  0  0  0  0
    6.0797   -3.2601    0.3459 C   0  0  0  0  0  0  0  0  0  0  0  0
    7.3174   -3.8116    0.5653 C   0  0  0  0  0  0  0  0  0  0  0  0
    5.9079   -5.3700    0.6528 C   0  0  0  0  0  0  0  0  0  0  0  0
   -7.2175   -1.8426   -1.2666 H   0  0  0  0  0  0  0  0  0  0  0  0
   -7.0143   -1.9526    1.7878 H   0  0  0  0  0  0  0  0  0  0  0  0
   -8.4328   -1.3790    0.9059 H   0  0  0  0  0  0  0  0  0  0  0  0
   -5.0158   -2.8562   -1.3743 H   0  0  0  0  0  0  0  0  0  0  0  0
   -4.9899   -3.1765    0.3729 H   0  0  0  0  0  0  0  0  0  0  0  0
   -6.9284    0.4512    1.7300 H   0  0  0  0  0  0  0  0  0  0  0  0
   -7.3486    0.5130    0.0142 H   0  0  0  0  0  0  0  0  0  0  0  0
   -7.6439   -5.4416   -1.4252 H   0  0  0  0  0  0  0  0  0  0  0  0
   -6.0528   -4.7483   -1.4306 H   0  0  0  0  0  0  0  0  0  0  0  0
   -7.3540   -3.9795   -2.3799 H   0  0  0  0  0  0  0  0  0  0  0  0
   -9.4030   -4.5677   -0.2884 H   0  0  0  0  0  0  0  0  0  0  0  0
   -9.3764   -2.9158   -0.9142 H   0  0  0  0  0  0  0  0  0  0  0  0
   -9.2555   -3.2644    0.8392 H   0  0  0  0  0  0  0  0  0  0  0  0
   -1.4293    1.1839   -0.2622 H   0  0  0  0  0  0  0  0  0  0  0  0
   -0.2082    2.3907   -1.2982 H   0  0  0  0  0  0  0  0  0  0  0  0
   -1.1671    5.0415    1.9822 H   0  0  0  0  0  0  0  0  0  0  0  0
    3.0427    4.0540   -1.9549 H   0  0  0  0  0  0  0  0  0  0  0  0
    1.7396    3.1543   -2.7174 H   0  0  0  0  0  0  0  0  0  0  0  0
    2.6321    5.3147    0.0325 H   0  0  0  0  0  0  0  0  0  0  0  0
    1.0429    6.1009    1.7489 H   0  0  0  0  0  0  0  0  0  0  0  0
    2.4346    1.2138   -1.7467 H   0  0  0  0  0  0  0  0  0  0  0  0
    6.6585    1.2571   -0.2932 H   0  0  0  0  0  0  0  0  0  0  0  0
    2.6368   -0.3388   -0.4459 H   0  0  0  0  0  0  0  0  0  0  0  0
    7.5206   -0.9801    0.1497 H   0  0  0  0  0  0  0  0  0  0  0  0
    3.4890   -2.5537   -0.0374 H   0  0  0  0  0  0  0  0  0  0  0  0
    8.2800   -3.3224    0.5943 H   0  0  0  0  0  0  0  0  0  0  0  0
    5.3730   -6.3038    0.7389 H   0  0  0  0  0  0  0  0  0  0  0  0
  1 14  1  0  0  0  0
  1 18  1  0  0  0  0
  2 19  2  0  0  0  0
  3 27  2  0  0  0  0
  4 34  1  0  0  0  0
  4 36  1  0  0  0  0
  5 10  1  0  0  0  0
  5 16  1  0  0  0  0
  5 17  1  0  0  0  0
  6 15  1  0  0  0  0
  6 18  2  0  0  0  0
  7 18  1  0  0  0  0
  7 19  1  0  0  0  0
  7 50  1  0  0  0  0
  8 24  1  0  0  0  0
  8 27  1  0  0  0  0
  8 57  1  0  0  0  0
  9 35  1  0  0  0  0
  9 36  2  0  0  0  0
 10 11  1  0  0  0  0
 10 12  1  0  0  0  0
 10 37  1  0  0  0  0
 11 13  1  0  0  0  0
 11 38  1  0  0  0  0
 11 39  1  0  0  0  0
 12 14  1  0  0  0  0
 12 40  1  0  0  0  0
 12 41  1  0  0  0  0
 13 15  1  0  0  0  0
 13 42  1  0  0  0  0
 13 43  1  0  0  0  0
 14 15  2  0  0  0  0
 16 44  1  0  0  0  0
 16 45  1  0  0  0  0
 16 46  1  0  0  0  0
 17 47  1  0  0  0  0
 17 48  1  0  0  0  0
 17 49  1  0  0  0  0
 19 20  1  0  0  0  0
 20 21  1  0  0  0  0
 20 23  2  0  0  0  0
 21 22  2  0  0  0  0
 21 51  1  0  0  0  0
 22 24  1  0  0  0  0
 22 25  1  0  0  0  0
 23 26  1  0  0  0  0
 23 52  1  0  0  0  0
 24 53  1  0  0  0  0
 24 54  1  0  0  0  0
 25 26  2  0  0  0  0
 25 55  1  0  0  0  0
 26 56  1  0  0  0  0
 27 28  1  0  0  0  0
 28 30  2  0  0  0  0
 28 31  1  0  0  0  0
 29 32  2  0  0  0  0
 29 33  1  0  0  0  0
 29 34  1  0  0  0  0
 30 32  1  0  0  0  0
 30 58  1  0  0  0  0
 31 33  2  0  0  0  0
 31 59  1  0  0  0  0
 32 60  1  0  0  0  0
 33 61  1  0  0  0  0
 34 35  2  0  0  0  0
 35 62  1  0  0  0  0
 36 63  1  0  0  0  0
M  END
> <PUBCHEM_COMPOUND_CID>
84973065

> <PUBCHEM_CONFORMER_RMSD>
1

> <PUBCHEM_CONFORMER_DIVERSEORDER>
1
44
42
121
74
59
143
135
104
88
14
113
112
16
98
53
146
19
85
34
91
47
116
111
124
127
151
125
192
50
114
26
81
86
20
97
72
172
166
167
147
51
99
61
120
182
117
162
102
60
46
63
58
49
40
171
123
29
8
92
82
75
186
191
93
106
38
89
68
122
190
52
144
6
9
87
65
126
133
185
154
161
107
28
76
175
77
163
150
48
66
84
176
80
25
109
188
181
94
56
11
195
54
79
194
37
31
22
95
64
137
187
27
119
140
134
168
32
105
178
12
67
189
183
78
10
69
170
179
15
18
110
184
173
193
141
96
100
55
130
164
62
45
57
177
33
73
3
155
103
108
132
7
148
128
149
90
142
131
159
4
157
165
39
145
43
21
138
35
83
118
139
160
152
158
129
41
70
24
101
71
156
174
115
17
180
13
136
30
153
169
36
5
2
23

> <PUBCHEM_MMFF94_PARTIAL_CHARGES>
47
1 -0.08
10 0.27
12 0.18
13 0.18
14 -0.14
15 0.05
16 0.27
17 0.27
18 0.44
19 0.54
2 -0.57
20 0.09
21 -0.15
22 -0.14
23 -0.15
24 0.44
25 -0.15
26 -0.15
27 0.54
28 0.09
29 0.05
3 -0.57
30 -0.15
31 -0.15
32 -0.15
33 -0.15
34 0.09
35 0.08
36 0.33
4 -0.28
5 -0.81
50 0.37
51 0.15
52 0.15
55 0.15
56 0.15
57 0.37
58 0.15
59 0.15
6 -0.57
60 0.15
61 0.15
62 0.15
63 0.15
7 -0.49
8 -0.73
9 -0.57

> <PUBCHEM_EFFECTIVE_ROTOR_COUNT>
9.8

> <PUBCHEM_PHARMACOPHORE_FEATURES>
10
1 2 acceptor
1 3 acceptor
1 5 cation
1 7 donor
1 8 donor
5 1 6 14 15 18 rings
5 4 9 34 35 36 rings
6 10 11 12 13 14 15 rings
6 20 21 22 23 25 26 rings
6 28 29 30 31 32 33 rings

> <PUBCHEM_HEAVY_ATOM_COUNT>
36

> <PUBCHEM_ATOM_DEF_STEREO_COUNT>
1

> <PUBCHEM_ATOM_UDEF_STEREO_COUNT>
0

> <PUBCHEM_BOND_DEF_STEREO_COUNT>
0

> <PUBCHEM_BOND_UDEF_STEREO_COUNT>
0

> <PUBCHEM_ISOTOPIC_ATOM_COUNT>
0

> <PUBCHEM_COMPONENT_COUNT>
1

> <PUBCHEM_CACTVS_TAUTO_COUNT>
6

> <PUBCHEM_CONFORMER_ID>
0510960900000001

> <PUBCHEM_MMFF94_ENERGY>
83.0822

> <PUBCHEM_FEATURE_SELFOVERLAP>
50.816

> <PUBCHEM_SHAPE_FINGERPRINT>
10100884 174 18261391110210510810
10622 236 18336830805814124036
11409948 35 18336545028234919383
11607047 403 18339350977519227816
117089 54 18408609128156653858
11761917 116 18337117744775251526
12559416 138 18342167865494206790
13008946 335 17195443448708500920
13553639 21 18337967769652173427
13947947 140 18335709338365940767
14344974 204 18122907530555819006
14747282 305 18335711577009064657
15538507 19 17979070489040869434
15569901 51 18408886217708472427
15728490 83 18337111163771867597
15803439 3 16306526295342791396
16728300 4 18341894095777950157
16728433 281 10950322746463013082
16993427 108 18342454859529804487
17324776 126 18335980861735349050
17492 89 18336829697918361204
208703 8 18262514784911855938
21360442 33 18265613363566627119
21362267 20 17687740538241084074
21585483 132 17770772722548342239
23523788 1 18196342967134104288
23569914 152 18123719051936052509
23569943 247 18410016572460992531
24204213 148 18334586750722908956
24893989 43 18057898037710625326
24983565 74 18336823096100024978
260245 28 18339922743927742590
2835820 82 18337673126558394827
3504750 166 18194688064088906257
397830 11 10159157085943620253
4073 2 17477207601856959177
46848820 9 18413102840933404131
4756088 132 18269545208284190183
50080093 196 17174334577832493914
6057620 51 18334303055074012942
6058803 2 18192739777367957228
6201320 221 18339066199232540831
6201320 77 17389420222593749433
6201460 15 18337393717286808766
6441014 3 18267020566303653834
7970288 3 18410575084937879216
9555976 147 17917160398867761641
96874 4 18410857676621423933

> <PUBCHEM_SHAPE_MULTIPOLES>
702.2
25.45
9.74
1.07
21.73
0.27
-0.17
48.21
1.05
-9.09
1.68
0.14
-0.49
-5.15

> <PUBCHEM_SHAPE_SELFOVERLAP>
1519.109

> <PUBCHEM_SHAPE_VOLUME>
387.5

> <PUBCHEM_COORDINATE_TYPE>
2
5
10

$$$$
84973066
  -OEChem-05102415103D

 70 75  0     1  0  0  0  0  0999 V2000
   -2.6022    0.3804    0.0241 S   0  0  0  0  0  0  0  0  0  0  0  0
   -3.2735   -4.2032   -0.6618 O   0  0  0  0  0  0  0  0  0  0  0  0
    1.7701   -1.3214    1.7169 O   0  0  0  0  0  0  0  0  0  0  0  0
    4.4598    4.5736   -0.8817 O   0  0  0  0  0  0  0  0  0  0  0  0
   -6.6416    3.7532   -0.2797 N   0  0  0  0  0  0  0  0  0  0  0  0
   -4.3917   -1.4097   -0.5322 N   0  0  0  0  0  0  0  0  0  0  0  0
   -2.1348   -2.1910   -0.2020 N   0  0  0  0  0  0  0  0  0  0  0  0
    3.0702   -3.0322    0.8440 N   0  0  0  0  0  0  0  0  0  0  0  0
    4.3729    1.0925   -0.5287 N   0  0  0  0  0  0  0  0  0  0  0  0
    4.5735   -1.0493   -0.5157 N   0  0  0  0  0  0  0  0  0  0  0  0
    5.0895    0.0674   -1.0175 N   0  0  0  0  0  0  0  0  0  0  0  0
    3.9139    3.4035   -0.3504 N   0  0  0  0  0  0  0  0  0  0  0  0
    5.5406    4.2917   -1.7195 N   0  0  0  0  0  0  0  0  0  0  0  0
    6.5523    2.2093   -2.3575 N   0  0  0  0  0  0  0  0  0  0  0  0
   -6.1908    2.3855   -0.0303 C   0  0  1  0  0  0  0  0  0  0  0  0
   -6.8792    1.4118   -1.0139 C   0  0  0  0  0  0  0  0  0  0  0  0
   -4.6504    2.3196   -0.1477 C   0  0  0  0  0  0  0  0  0  0  0  0
   -6.4825   -0.0518   -0.7417 C   0  0  0  0  0  0  0  0  0  0  0  0
   -4.2064    0.8964   -0.2128 C   0  0  0  0  0  0  0  0  0  0  0  0
   -5.0184   -0.1816   -0.5040 C   0  0  0  0  0  0  0  0  0  0  0  0
   -8.1017    3.8277   -0.2324 C   0  0  0  0  0  0  0  0  0  0  0  0
   -6.0517    4.6722    0.6935 C   0  0  0  0  0  0  0  0  0  0  0  0
   -3.1136   -1.2351   -0.2700 C   0  0  0  0  0  0  0  0  0  0  0  0
   -2.2455   -3.5906   -0.3934 C   0  0  0  0  0  0  0  0  0  0  0  0
   -0.9850   -4.3701   -0.2795 C   0  0  0  0  0  0  0  0  0  0  0  0
    0.0600   -3.8957    0.5132 C   0  0  0  0  0  0  0  0  0  0  0  0
    1.2428   -4.6273    0.6193 C   0  0  0  0  0  0  0  0  0  0  0  0
   -0.8473   -5.5765   -0.9663 C   0  0  0  0  0  0  0  0  0  0  0  0
    2.3601   -4.1201    1.4671 C   0  0  0  0  0  0  0  0  0  0  0  0
    1.3806   -5.8336   -0.0675 C   0  0  0  0  0  0  0  0  0  0  0  0
    0.3355   -6.3081   -0.8603 C   0  0  0  0  0  0  0  0  0  0  0  0
    3.3808    0.6623    0.2975 C   0  0  0  0  0  0  0  0  0  0  0  0
    3.5262   -0.7022    0.2918 C   0  0  0  0  0  0  0  0  0  0  0  0
    2.4392    1.5176    0.9796 C   0  0  0  0  0  0  0  0  0  0  0  0
    2.7096   -1.7039    1.0244 C   0  0  0  0  0  0  0  0  0  0  0  0
    4.6592    2.4272   -0.8650 C   0  0  0  0  0  0  0  0  0  0  0  0
    2.7362    2.0070    2.2516 C   0  0  0  0  0  0  0  0  0  0  0  0
    1.2326    1.8548    0.3668 C   0  0  0  0  0  0  0  0  0  0  0  0
    1.8262    2.8336    2.9108 C   0  0  0  0  0  0  0  0  0  0  0  0
    0.3225    2.6814    1.0259 C   0  0  0  0  0  0  0  0  0  0  0  0
    5.6426    2.9641   -1.6929 C   0  0  0  0  0  0  0  0  0  0  0  0
    0.6194    3.1708    2.2980 C   0  0  0  0  0  0  0  0  0  0  0  0
   -6.4715    2.0763    0.9885 H   0  0  0  0  0  0  0  0  0  0  0  0
   -6.6070    1.6751   -2.0452 H   0  0  0  0  0  0  0  0  0  0  0  0
   -7.9713    1.4379   -0.9492 H   0  0  0  0  0  0  0  0  0  0  0  0
   -4.1711    2.7985    0.7143 H   0  0  0  0  0  0  0  0  0  0  0  0
   -4.3090    2.8326   -1.0565 H   0  0  0  0  0  0  0  0  0  0  0  0
   -7.0133   -0.4145    0.1468 H   0  0  0  0  0  0  0  0  0  0  0  0
   -6.7874   -0.6799   -1.5860 H   0  0  0  0  0  0  0  0  0  0  0  0
   -8.5624    3.4011   -1.1287 H   0  0  0  0  0  0  0  0  0  0  0  0
   -8.5213    3.3525    0.6620 H   0  0  0  0  0  0  0  0  0  0  0  0
   -8.4321    4.8741   -0.2314 H   0  0  0  0  0  0  0  0  0  0  0  0
   -4.9746    4.7943    0.5439 H   0  0  0  0  0  0  0  0  0  0  0  0
   -6.4672    5.6797    0.5693 H   0  0  0  0  0  0  0  0  0  0  0  0
   -6.2375    4.3617    1.7283 H   0  0  0  0  0  0  0  0  0  0  0  0
   -1.2151   -1.7992   -0.0229 H   0  0  0  0  0  0  0  0  0  0  0  0
   -0.0462   -2.9873    1.0962 H   0  0  0  0  0  0  0  0  0  0  0  0
   -1.6469   -5.9615   -1.5936 H   0  0  0  0  0  0  0  0  0  0  0  0
    1.9732   -3.7974    2.4412 H   0  0  0  0  0  0  0  0  0  0  0  0
    3.0939   -4.9094    1.6663 H   0  0  0  0  0  0  0  0  0  0  0  0
    2.2969   -6.4135    0.0039 H   0  0  0  0  0  0  0  0  0  0  0  0
    0.4436   -7.2465   -1.3964 H   0  0  0  0  0  0  0  0  0  0  0  0
    3.8511   -3.2561    0.2336 H   0  0  0  0  0  0  0  0  0  0  0  0
    3.6725    1.7534    2.7431 H   0  0  0  0  0  0  0  0  0  0  0  0
    0.9867    1.4828   -0.6251 H   0  0  0  0  0  0  0  0  0  0  0  0
    2.0575    3.2151    3.9010 H   0  0  0  0  0  0  0  0  0  0  0  0
   -0.6133    2.9525    0.5468 H   0  0  0  0  0  0  0  0  0  0  0  0
   -0.0883    3.8159    2.8102 H   0  0  0  0  0  0  0  0  0  0  0  0
    6.5816    1.1960   -2.2986 H   0  0  0  0  0  0  0  0  0  0  0  0
    7.2593    2.6257   -2.9553 H   0  0  0  0  0  0  0  0  0  0  0  0
  1 19  1  0  0  0  0
  1 23  1  0  0  0  0
  2 24  2  0  0  0  0
  3 35  2  0  0  0  0
  4 12  1  0  0  0  0
  4 13  1  0  0  0  0
  5 15  1  0  0  0  0
  5 21  1  0  0  0  0
  5 22  1  0  0  0  0
  6 20  1  0  0  0  0
  6 23  2  0  0  0  0
  7 23  1  0  0  0  0
  7 24  1  0  0  0  0
  7 56  1  0  0  0  0
  8 29  1  0  0  0  0
  8 35  1  0  0  0  0
  8 63  1  0  0  0  0
  9 11  1  0  0  0  0
  9 32  1  0  0  0  0
  9 36  1  0  0  0  0
 10 11  2  0  0  0  0
 10 33  1  0  0  0  0
 12 36  2  0  0  0  0
 13 41  2  0  0  0  0
 14 41  1  0  0  0  0
 14 69  1  0  0  0  0
 14 70  1  0  0  0  0
 15 16  1  0  0  0  0
 15 17  1  0  0  0  0
 15 43  1  0  0  0  0
 16 18  1  0  0  0  0
 16 44  1  0  0  0  0
 16 45  1  0  0  0  0
 17 19  1  0  0  0  0
 17 46  1  0  0  0  0
 17 47  1  0  0  0  0
 18 20  1  0  0  0  0
 18 48  1  0  0  0  0
 18 49  1  0  0  0  0
 19 20  2  0  0  0  0
 21 50  1  0  0  0  0
 21 51  1  0  0  0  0
 21 52  1  0  0  0  0
 22 53  1  0  0  0  0
 22 54  1  0  0  0  0
 22 55  1  0  0  0  0
 24 25  1  0  0  0  0
 25 26  1  0  0  0  0
 25 28  2  0  0  0  0
 26 27  2  0  0  0  0
 26 57  1  0  0  0  0
 27 29  1  0  0  0  0
 27 30  1  0  0  0  0
 28 31  1  0  0  0  0
 28 58  1  0  0  0  0
 29 59  1  0  0  0  0
 29 60  1  0  0  0  0
 30 31  2  0  0  0  0
 30 61  1  0  0  0  0
 31 62  1  0  0  0  0
 32 33  2  0  0  0  0
 32 34  1  0  0  0  0
 33 35  1  0  0  0  0
 34 37  2  0  0  0  0
 34 38  1  0  0  0  0
 36 41  1  0  0  0  0
 37 39  1  0  0  0  0
 37 64  1  0  0  0  0
 38 40  2  0  0  0  0
 38 65  1  0  0  0  0
 39 42  2  0  0  0  0
 39 66  1  0  0  0  0
 40 42  1  0  0  0  0
 40 67  1  0  0  0  0
 42 68  1  0  0  0  0
M  END
> <PUBCHEM_COMPOUND_CID>
84973066

> <PUBCHEM_CONFORMER_RMSD>
1.2

> <PUBCHEM_CONFORMER_DIVERSEORDER>
1
84
6
177
40
103
157
68
146
64
185
119
50
87
33
13
92
153
62
100
17
97
121
86
60
90
108
140
154
83
148
77
80
69
41
145
142
101
73
55
164
10
169
166
114
125
122
116
58
81
20
25
181
106
15
76
39
176
107
63
117
155
26
109
168
167
65
57
11
189
19
147
54
160
96
85
172
111
45
70
110
159
22
102
163
16
186
178
51
139
61
74
53
28
165
35
104
113
66
180
150
98
67
143
82
138
128
141
79
149
151
171
42
44
4
78
175
134
91
75
162
52
99
115
184
183
132
24
48
72
174
130
158
9
47
137
18
56
23
170
14
89
144
120
34
5
36
71
112
32
118
29
161
8
182
131
49
31
133
2
59
187
124
136
43
12
173
30
105
37
27
46
94
135
3
127
152
38
126
156
123
21
190
188
179
93
7
88
95
129

> <PUBCHEM_MMFF94_PARTIAL_CHARGES>
54
1 -0.08
10 -0.23
11 -0.42
12 -0.41
13 -0.41
14 -0.88
15 0.27
17 0.18
18 0.18
19 -0.14
2 -0.57
20 0.05
21 0.27
22 0.27
23 0.44
24 0.54
25 0.09
26 -0.15
27 -0.14
28 -0.15
29 0.44
3 -0.57
30 -0.15
31 -0.15
32 -0.2
33 0.14
34 0.05
35 0.72
36 0.21
37 -0.15
38 -0.15
39 -0.15
4 0.24
40 -0.15
41 0.37
42 -0.15
5 -0.81
56 0.37
57 0.15
58 0.15
6 -0.57
61 0.15
62 0.15
63 0.37
64 0.15
65 0.15
66 0.15
67 0.15
68 0.15
69 0.4
7 -0.49
70 0.4
8 -0.73
9 0.65

> <PUBCHEM_EFFECTIVE_ROTOR_COUNT>
10.8

> <PUBCHEM_PHARMACOPHORE_FEATURES>
14
1 14 donor
1 2 acceptor
1 3 acceptor
1 5 cation
1 7 donor
1 8 donor
3 13 14 41 cation
3 9 12 36 cation
5 1 6 19 20 23 rings
5 4 12 13 36 41 rings
5 9 10 11 32 33 rings
6 15 16 17 18 19 20 rings
6 25 26 27 28 30 31 rings
6 34 37 38 39 40 42 rings

> <PUBCHEM_HEAVY_ATOM_COUNT>
42

> <PUBCHEM_ATOM_DEF_STEREO_COUNT>
1

> <PUBCHEM_ATOM_UDEF_STEREO_COUNT>
0

> <PUBCHEM_BOND_DEF_STEREO_COUNT>
0

> <PUBCHEM_BOND_UDEF_STEREO_COUNT>
0

> <PUBCHEM_ISOTOPIC_ATOM_COUNT>
0

> <PUBCHEM_COMPONENT_COUNT>
1

> <PUBCHEM_CACTVS_TAUTO_COUNT>
12

> <PUBCHEM_CONFORMER_ID>
0510960A00000001

> <PUBCHEM_MMFF94_ENERGY>
94.7673

> <PUBCHEM_FEATURE_SELFOVERLAP>
71.181

> <PUBCHEM_SHAPE_FINGERPRINT>
10439779 11 18125129827737793930
10483366 6 18196099842042185094
10675989 125 18336547092926823792
10677394 325 17831610603599856070
10864689 126 18342455950441032778
10974685 15 17837200850736431968
11017883 126 18189620436607992316
11093857 5 18124585642337888888
11374522 174 18187941576752079973
11410812 94 17758128369300280540
13944108 23 18266176119603026359
14664723 55 17823145682108783060
14937079 2 17692530010837576901
15082195 135 17981574154400592783
15320295 198 17758677751124134221
15320467 1 16109232020677142179
15400415 2 18410009961762940773
16992727 255 18336552715777447148
17899979 129 18334301933196108900
21779490 112 18124869316137219128
24204213 92 13798610417818616288
24771750 20 18339079277539221311
354706 132 17901956562917680548
4058900 60 18411427193764645557
44280116 191 18335991857051677828
508706 21 17619066578871056626
5265222 85 18338241578148560261
53794403 172 18336828563946826959

> <PUBCHEM_SHAPE_MULTIPOLES>
800.77
16.83
10.23
1.73
26.48
12.65
0.62
-25.41
-7.76
-4.48
-1.28
-2.85
-1.9
-3.72

> <PUBCHEM_SHAPE_SELFOVERLAP>
1742.8

> <PUBCHEM_SHAPE_VOLUME>
438.8

> <PUBCHEM_COORDINATE_TYPE>
2
5
10

$$$$
84973067
  -OEChem-05102415103D

 62 66  0     1  0  0  0  0  0999 V2000
   -2.7231    0.4567    0.3166 S   0  0  0  0  0  0  0  0  0  0  0  0
    6.1751    1.8670   -1.2452 S   0  0  0  0  0  0  0  0  0  0  0  0
   -2.2802   -4.1252   -0.5436 O   0  0  0  0  0  0  0  0  0  0  0  0
    5.4288   -2.4011    0.0728 O   0  0  0  0  0  0  0  0  0  0  0  0
   -7.4374    2.7949    0.0118 N   0  0  0  0  0  0  0  0  0  0  0  0
   -4.0283   -1.6803   -0.3514 N   0  0  0  0  0  0  0  0  0  0  0  0
   -1.6578   -1.9217    0.0167 N   0  0  0  0  0  0  0  0  0  0  0  0
    3.5756   -1.5549    1.1814 N   0  0  0  0  0  0  0  0  0  0  0  0
    4.2573    0.9849    0.2470 N   0  0  0  0  0  0  0  0  0  0  0  0
    3.1374    5.9660    0.1141 N   0  0  0  0  0  0  0  0  0  0  0  0
   -6.6816    1.5627    0.2273 C   0  0  1  0  0  0  0  0  0  0  0  0
   -7.1011    0.4943   -0.8081 C   0  0  0  0  0  0  0  0  0  0  0  0
   -5.1671    1.8654    0.1521 C   0  0  0  0  0  0  0  0  0  0  0  0
   -6.3758   -0.8446   -0.5745 C   0  0  0  0  0  0  0  0  0  0  0  0
   -4.3987    0.5901    0.0515 C   0  0  0  0  0  0  0  0  0  0  0  0
   -4.9275   -0.6360   -0.2994 C   0  0  0  0  0  0  0  0  0  0  0  0
   -7.1005    3.7873    1.0322 C   0  0  0  0  0  0  0  0  0  0  0  0
   -8.8745    2.5221    0.0197 C   0  0  0  0  0  0  0  0  0  0  0  0
   -2.8329   -1.2208   -0.0469 C   0  0  0  0  0  0  0  0  0  0  0  0
   -1.4313   -3.2995   -0.2252 C   0  0  0  0  0  0  0  0  0  0  0  0
   -0.0249   -3.7647   -0.1018 C   0  0  0  0  0  0  0  0  0  0  0  0
    0.8622   -3.0895    0.7365 C   0  0  0  0  0  0  0  0  0  0  0  0
    2.1821   -3.5258    0.8519 C   0  0  0  0  0  0  0  0  0  0  0  0
    0.4079   -4.8764   -0.8249 C   0  0  0  0  0  0  0  0  0  0  0  0
    3.1312   -2.8034    1.7471 C   0  0  0  0  0  0  0  0  0  0  0  0
    2.6150   -4.6374    0.1288 C   0  0  0  0  0  0  0  0  0  0  0  0
    1.7278   -5.3126   -0.7099 C   0  0  0  0  0  0  0  0  0  0  0  0
    4.7045   -1.4577    0.3795 C   0  0  0  0  0  0  0  0  0  0  0  0
    5.0441   -0.0948   -0.1041 C   0  0  0  0  0  0  0  0  0  0  0  0
    4.7588    2.0710   -0.2980 C   0  0  0  0  0  0  0  0  0  0  0  0
    6.1285    0.1860   -0.9086 C   0  0  0  0  0  0  0  0  0  0  0  0
    4.2068    3.3977   -0.1569 C   0  0  0  0  0  0  0  0  0  0  0  0
    4.9993    4.5132   -0.4030 C   0  0  0  0  0  0  0  0  0  0  0  0
    2.8800    3.5647    0.2246 C   0  0  0  0  0  0  0  0  0  0  0  0
    4.4224    5.7642   -0.2547 C   0  0  0  0  0  0  0  0  0  0  0  0
    2.3978    4.8581    0.3447 C   0  0  0  0  0  0  0  0  0  0  0  0
   -6.9016    1.1559    1.2266 H   0  0  0  0  0  0  0  0  0  0  0  0
   -6.8782    0.8550   -1.8216 H   0  0  0  0  0  0  0  0  0  0  0  0
   -8.1696    0.2604   -0.7739 H   0  0  0  0  0  0  0  0  0  0  0  0
   -4.8319    2.4087    1.0432 H   0  0  0  0  0  0  0  0  0  0  0  0
   -4.9386    2.4799   -0.7287 H   0  0  0  0  0  0  0  0  0  0  0  0
   -6.5071   -1.4927   -1.4480 H   0  0  0  0  0  0  0  0  0  0  0  0
   -6.8236   -1.3569    0.2856 H   0  0  0  0  0  0  0  0  0  0  0  0
   -7.7395    4.6731    0.9304 H   0  0  0  0  0  0  0  0  0  0  0  0
   -6.0799    4.1652    0.9177 H   0  0  0  0  0  0  0  0  0  0  0  0
   -7.2283    3.4009    2.0500 H   0  0  0  0  0  0  0  0  0  0  0  0
   -9.4424    3.4607    0.0468 H   0  0  0  0  0  0  0  0  0  0  0  0
   -9.1877    1.9265    0.8850 H   0  0  0  0  0  0  0  0  0  0  0  0
   -9.2036    2.0352   -0.9034 H   0  0  0  0  0  0  0  0  0  0  0  0
   -0.8603   -1.3323    0.2353 H   0  0  0  0  0  0  0  0  0  0  0  0
    0.5471   -2.2417    1.3382 H   0  0  0  0  0  0  0  0  0  0  0  0
   -0.2654   -5.4135   -1.4878 H   0  0  0  0  0  0  0  0  0  0  0  0
    2.6466   -2.5774    2.7041 H   0  0  0  0  0  0  0  0  0  0  0  0
    4.0046   -3.4250    1.9778 H   0  0  0  0  0  0  0  0  0  0  0  0
    3.6408   -4.9876    0.2070 H   0  0  0  0  0  0  0  0  0  0  0  0
    2.0655   -6.1769   -1.2742 H   0  0  0  0  0  0  0  0  0  0  0  0
    3.0321   -0.7188    1.3771 H   0  0  0  0  0  0  0  0  0  0  0  0
    6.8759   -0.4862   -1.3063 H   0  0  0  0  0  0  0  0  0  0  0  0
    6.0466    4.4755   -0.6793 H   0  0  0  0  0  0  0  0  0  0  0  0
    2.2235    2.7239    0.4239 H   0  0  0  0  0  0  0  0  0  0  0  0
    4.9990    6.6668   -0.4287 H   0  0  0  0  0  0  0  0  0  0  0  0
    1.3697    5.0425    0.6385 H   0  0  0  0  0  0  0  0  0  0  0  0
  1 15  1  0  0  0  0
  1 19  1  0  0  0  0
  2 30  1  0  0  0  0
  2 31  1  0  0  0  0
  3 20  2  0  0  0  0
  4 28  2  0  0  0  0
  5 11  1  0  0  0  0
  5 17  1  0  0  0  0
  5 18  1  0  0  0  0
  6 16  1  0  0  0  0
  6 19  2  0  0  0  0
  7 19  1  0  0  0  0
  7 20  1  0  0  0  0
  7 50  1  0  0  0  0
  8 25  1  0  0  0  0
  8 28  1  0  0  0  0
  8 57  1  0  0  0  0
  9 29  1  0  0  0  0
  9 30  2  0  0  0  0
 10 35  2  0  0  0  0
 10 36  1  0  0  0  0
 11 12  1  0  0  0  0
 11 13  1  0  0  0  0
 11 37  1  0  0  0  0
 12 14  1  0  0  0  0
 12 38  1  0  0  0  0
 12 39  1  0  0  0  0
 13 15  1  0  0  0  0
 13 40  1  0  0  0  0
 13 41  1  0  0  0  0
 14 16  1  0  0  0  0
 14 42  1  0  0  0  0
 14 43  1  0  0  0  0
 15 16  2  0  0  0  0
 17 44  1  0  0  0  0
 17 45  1  0  0  0  0
 17 46  1  0  0  0  0
 18 47  1  0  0  0  0
 18 48  1  0  0  0  0
 18 49  1  0  0  0  0
 20 21  1  0  0  0  0
 21 22  1  0  0  0  0
 21 24  2  0  0  0  0
 22 23  2  0  0  0  0
 22 51  1  0  0  0  0
 23 25  1  0  0  0  0
 23 26  1  0  0  0  0
 24 27  1  0  0  0  0
 24 52  1  0  0  0  0
 25 53  1  0  0  0  0
 25 54  1  0  0  0  0
 26 27  2  0  0  0  0
 26 55  1  0  0  0  0
 27 56  1  0  0  0  0
 28 29  1  0  0  0  0
 29 31  2  0  0  0  0
 30 32  1  0  0  0  0
 31 58  1  0  0  0  0
 32 33  2  0  0  0  0
 32 34  1  0  0  0  0
 33 35  1  0  0  0  0
 33 59  1  0  0  0  0
 34 36  2  0  0  0  0
 34 60  1  0  0  0  0
 35 61  1  0  0  0  0
 36 62  1  0  0  0  0
M  END
> <PUBCHEM_COMPOUND_CID>
84973067

> <PUBCHEM_CONFORMER_RMSD>
1.2

> <PUBCHEM_CONFORMER_DIVERSEORDER>
1
42
48
158
120
179
74
148
105
36
66
133
121
143
43
153
198
106
167
34
124
117
57
160
155
177
103
137
218
101
78
159
16
65
115
95
170
39
111
41
169
46
149
52
8
22
108
19
76
151
205
109
80
189
24
97
132
188
162
172
219
89
136
150
56
129
100
180
126
10
25
37
161
51
192
40
83
90
69
85
184
79
147
4
118
87
130
193
215
32
55
152
77
94
53
61
81
91
104
31
71
88
96
196
112
7
9
178
67
142
114
139
14
102
174
116
140
123
63
35
213
68
204
202
131
195
223
146
197
125
190
15
99
44
17
217
13
212
70
75
211
98
29
144
221
45
210
163
164
138
145
207
82
11
47
201
23
122
186
191
92
30
200
220
59
110
168
60
182
141
72
185
206
216
134
166
6
187
73
12
135
127
175
208
21
203
209
54
119
84
181
194
222
38
183
156
171
176
5
113
214
58
50
107
62
86
64
93
128
20
165
27
157
49
18
173
2
26
199
28
154
3
33

> <PUBCHEM_MMFF94_PARTIAL_CHARGES>
46
1 -0.08
10 -0.62
11 0.27
13 0.18
14 0.18
15 -0.14
16 0.05
17 0.27
18 0.27
19 0.44
2 -0.08
20 0.54
21 0.09
22 -0.15
23 -0.14
24 -0.15
25 0.44
26 -0.15
27 -0.15
28 0.72
29 0.14
3 -0.57
30 0.33
31 -0.11
32 0.05
33 -0.15
34 -0.15
35 0.16
36 0.16
4 -0.57
5 -0.81
50 0.37
51 0.15
52 0.15
55 0.15
56 0.15
57 0.37
58 0.15
59 0.15
6 -0.57
60 0.15
61 0.15
62 0.15
7 -0.49
8 -0.73
9 -0.57

> <PUBCHEM_EFFECTIVE_ROTOR_COUNT>
9.8

> <PUBCHEM_PHARMACOPHORE_FEATURES>
12
1 10 acceptor
1 3 acceptor
1 4 acceptor
1 5 cation
1 7 donor
1 8 donor
1 9 acceptor
5 1 6 15 16 19 rings
5 2 9 29 30 31 rings
6 10 32 33 34 35 36 rings
6 11 12 13 14 15 16 rings
6 21 22 23 24 26 27 rings

> <PUBCHEM_HEAVY_ATOM_COUNT>
36

> <PUBCHEM_ATOM_DEF_STEREO_COUNT>
1

> <PUBCHEM_ATOM_UDEF_STEREO_COUNT>
0

> <PUBCHEM_BOND_DEF_STEREO_COUNT>
0

> <PUBCHEM_BOND_UDEF_STEREO_COUNT>
0

> <PUBCHEM_ISOTOPIC_ATOM_COUNT>
0

> <PUBCHEM_COMPONENT_COUNT>
1

> <PUBCHEM_CACTVS_TAUTO_COUNT>
6

> <PUBCHEM_CONFORMER_ID>
0510960B00000001

> <PUBCHEM_MMFF94_ENERGY>
81.8388

> <PUBCHEM_FEATURE_SELFOVERLAP>
60.967

> <PUBCHEM_SHAPE_FINGERPRINT>
10439779 11 18122331648697495056
10462674 296 17692537711054328602
10556698 54 18196388120209156710
10673678 19 18412266120963059291
10864689 126 18338244872820902236
10917259 69 18337111298245747556
11273773 38 18410855434701340594
11374522 174 18115321092837804612
11479125 193 18265339593307786729
11505856 67 18054221309108131111
11621639 336 18052540968146778672
11761917 142 17476069607211708232
11828042 163 18411146857793578092
11828042 53 17614573957524169052
12925494 130 18408041831796107595
13944108 23 18338235951566880792
14117953 113 18340488855688736854
14747282 540 18261116232297623220
14790565 3 18338516472961319962
15001296 14 18334850671039139114
15160629 57 18271240496859339973
15320291 9 17326886782416436444
15320295 198 18044090155966977253
15320467 1 18410573946850673572
15400415 2 18266176321562441685
15569901 51 17907017279521745417
15773879 134 18411975901822935021
16067689 134 18340214002929253965
19053607 189 18340475777175347170
19302320 297 18337105675067752282
20580484 21 18266741286499148549
20691028 202 18411414029542255243
22019808 48 18339371764232563901
23729417 116 17045142992372598895
353859 123 14812184019462887009
397830 11 18188785942491802715
4408954 64 16813747514578952962
44280116 191 18410017615621424316
4567818 161 17622719822504023673
4756261 7 17257974852317155251
4760202 170 18120924011563091045
508180 173 18339653356022101114
5109719 28 18339092531576480379
5951187 136 18342747325322707438
6036956 94 17253149138884557228
6176135 31 18337096969274564072
99344 41 18411978057210435065

> <PUBCHEM_SHAPE_MULTIPOLES>
706.94
21.58
10.13
0.97
37.11
2.73
-0.12
25.88
2.11
-12.29
0.07
-0.53
-0.38
-2.62

> <PUBCHEM_SHAPE_SELFOVERLAP>
1511.483

> <PUBCHEM_SHAPE_VOLUME>
395.5

> <PUBCHEM_COORDINATE_TYPE>
2
5
10

$$$$
84973068
  -OEChem-05102415103D

 63 67  0     1  0  0  0  0  0999 V2000
   -4.8114   -0.0820   -1.3493 S   0  0  0  0  0  0  0  0  0  0  0  0
   -2.6553    2.0884    2.1963 O   0  0  0  0  0  0  0  0  0  0  0  0
    2.4002   -0.5179   -1.0628 O   0  0  0  0  0  0  0  0  0  0  0  0
    8.2975   -3.5398    1.0756 O   0  0  0  0  0  0  0  0  0  0  0  0
   -9.4090   -2.5438   -0.5833 N   0  0  0  0  0  0  0  0  0  0  0  0
   -4.9769    0.4615    1.1793 N   0  0  0  0  0  0  0  0  0  0  0  0
   -3.0449    1.3031    0.0080 N   0  0  0  0  0  0  0  0  0  0  0  0
    2.9717    1.6594   -1.6217 N   0  0  0  0  0  0  0  0  0  0  0  0
    6.4833   -0.8047   -0.1366 N   0  0  0  0  0  0  0  0  0  0  0  0
    5.6391    1.0332   -0.8692 N   0  0  0  0  0  0  0  0  0  0  0  0
    6.7689    0.4670   -0.4594 N   0  0  0  0  0  0  0  0  0  0  0  0
    7.1111   -2.9437    0.6436 N   0  0  0  0  0  0  0  0  0  0  0  0
    9.3628   -2.6384    1.0267 N   0  0  0  0  0  0  0  0  0  0  0  0
    9.4630   -0.3363    0.3510 N   0  0  0  0  0  0  0  0  0  0  0  0
   -8.4789   -1.5021   -0.1520 C   0  0  1  0  0  0  0  0  0  0  0  0
   -8.0639   -1.7365    1.3185 C   0  0  0  0  0  0  0  0  0  0  0  0
   -7.2527   -1.4817   -1.0939 C   0  0  0  0  0  0  0  0  0  0  0  0
   -7.1345   -0.6217    1.8353 C   0  0  0  0  0  0  0  0  0  0  0  0
   -6.1635   -0.6582   -0.4919 C   0  0  0  0  0  0  0  0  0  0  0  0
   -6.0853   -0.2833    0.8345 C   0  0  0  0  0  0  0  0  0  0  0  0
  -10.5499   -2.6212    0.3289 C   0  0  0  0  0  0  0  0  0  0  0  0
   -9.8644   -2.2895   -1.9499 C   0  0  0  0  0  0  0  0  0  0  0  0
   -4.2326    0.6279    0.1063 C   0  0  0  0  0  0  0  0  0  0  0  0
   -2.3243    1.9848    1.0200 C   0  0  0  0  0  0  0  0  0  0  0  0
   -1.0383    2.6044    0.6056 C   0  0  0  0  0  0  0  0  0  0  0  0
   -0.3227    2.0748   -0.4681 C   0  0  0  0  0  0  0  0  0  0  0  0
    0.8845    2.6559   -0.8566 C   0  0  0  0  0  0  0  0  0  0  0  0
   -0.5467    3.7155    1.2912 C   0  0  0  0  0  0  0  0  0  0  0  0
    1.6504    2.0890   -2.0038 C   0  0  0  0  0  0  0  0  0  0  0  0
    1.3761    3.7669   -0.1711 C   0  0  0  0  0  0  0  0  0  0  0  0
    0.6606    4.2965    0.9030 C   0  0  0  0  0  0  0  0  0  0  0  0
    5.1661   -1.0877   -0.3294 C   0  0  0  0  0  0  0  0  0  0  0  0
    4.6479    0.0943   -0.7957 C   0  0  0  0  0  0  0  0  0  0  0  0
    3.2391    0.3720   -1.1765 C   0  0  0  0  0  0  0  0  0  0  0  0
    4.5519   -2.4007   -0.0624 C   0  0  0  0  0  0  0  0  0  0  0  0
    7.4600   -1.6950    0.3390 C   0  0  0  0  0  0  0  0  0  0  0  0
    8.8212   -1.5104    0.5707 C   0  0  0  0  0  0  0  0  0  0  0  0
   -8.9675   -0.5167   -0.2024 H   0  0  0  0  0  0  0  0  0  0  0  0
   -8.9146   -1.7532    2.0065 H   0  0  0  0  0  0  0  0  0  0  0  0
   -7.5526   -2.7047    1.4079 H   0  0  0  0  0  0  0  0  0  0  0  0
   -7.5160   -1.0576   -2.0698 H   0  0  0  0  0  0  0  0  0  0  0  0
   -6.8716   -2.4988   -1.2550 H   0  0  0  0  0  0  0  0  0  0  0  0
   -6.6732   -0.9338    2.7787 H   0  0  0  0  0  0  0  0  0  0  0  0
   -7.7247    0.2797    2.0399 H   0  0  0  0  0  0  0  0  0  0  0  0
  -11.0023   -1.6423    0.5254 H   0  0  0  0  0  0  0  0  0  0  0  0
  -10.2852   -3.1032    1.2751 H   0  0  0  0  0  0  0  0  0  0  0  0
  -11.3333   -3.2644   -0.0914 H   0  0  0  0  0  0  0  0  0  0  0  0
   -9.0644   -2.4304   -2.6832 H   0  0  0  0  0  0  0  0  0  0  0  0
  -10.6371   -3.0133   -2.2368 H   0  0  0  0  0  0  0  0  0  0  0  0
  -10.2887   -1.2859   -2.0697 H   0  0  0  0  0  0  0  0  0  0  0  0
   -2.6781    1.3199   -0.9390 H   0  0  0  0  0  0  0  0  0  0  0  0
   -0.6648    1.1895   -0.9966 H   0  0  0  0  0  0  0  0  0  0  0  0
   -1.0915    4.1466    2.1269 H   0  0  0  0  0  0  0  0  0  0  0  0
    1.1226    1.2431   -2.4590 H   0  0  0  0  0  0  0  0  0  0  0  0
    1.7640    2.8527   -2.7817 H   0  0  0  0  0  0  0  0  0  0  0  0
    2.3129    4.2330   -0.4652 H   0  0  0  0  0  0  0  0  0  0  0  0
    1.0425    5.1627    1.4354 H   0  0  0  0  0  0  0  0  0  0  0  0
    3.7287    2.3358   -1.6668 H   0  0  0  0  0  0  0  0  0  0  0  0
    4.9919   -3.1848   -0.6873 H   0  0  0  0  0  0  0  0  0  0  0  0
    4.6313   -2.6738    0.9951 H   0  0  0  0  0  0  0  0  0  0  0  0
    3.4835   -2.4160   -0.2876 H   0  0  0  0  0  0  0  0  0  0  0  0
    8.9956    0.4943    0.0008 H   0  0  0  0  0  0  0  0  0  0  0  0
   10.4567   -0.2279    0.5283 H   0  0  0  0  0  0  0  0  0  0  0  0
  1 19  1  0  0  0  0
  1 23  1  0  0  0  0
  2 24  2  0  0  0  0
  3 34  2  0  0  0  0
  4 12  1  0  0  0  0
  4 13  1  0  0  0  0
  5 15  1  0  0  0  0
  5 21  1  0  0  0  0
  5 22  1  0  0  0  0
  6 20  1  0  0  0  0
  6 23  2  0  0  0  0
  7 23  1  0  0  0  0
  7 24  1  0  0  0  0
  7 51  1  0  0  0  0
  8 29  1  0  0  0  0
  8 34  1  0  0  0  0
  8 58  1  0  0  0  0
  9 11  1  0  0  0  0
  9 32  1  0  0  0  0
  9 36  1  0  0  0  0
 10 11  2  0  0  0  0
 10 33  1  0  0  0  0
 12 36  2  0  0  0  0
 13 37  2  0  0  0  0
 14 37  1  0  0  0  0
 14 62  1  0  0  0  0
 14 63  1  0  0  0  0
 15 16  1  0  0  0  0
 15 17  1  0  0  0  0
 15 38  1  0  0  0  0
 16 18  1  0  0  0  0
 16 39  1  0  0  0  0
 16 40  1  0  0  0  0
 17 19  1  0  0  0  0
 17 41  1  0  0  0  0
 17 42  1  0  0  0  0
 18 20  1  0  0  0  0
 18 43  1  0  0  0  0
 18 44  1  0  0  0  0
 19 20  2  0  0  0  0
 21 45  1  0  0  0  0
 21 46  1  0  0  0  0
 21 47  1  0  0  0  0
 22 48  1  0  0  0  0
 22 49  1  0  0  0  0
 22 50  1  0  0  0  0
 24 25  1  0  0  0  0
 25 26  1  0  0  0  0
 25 28  2  0  0  0  0
 26 27  2  0  0  0  0
 26 52  1  0  0  0  0
 27 29  1  0  0  0  0
 27 30  1  0  0  0  0
 28 31  1  0  0  0  0
 28 53  1  0  0  0  0
 29 54  1  0  0  0  0
 29 55  1  0  0  0  0
 30 31  2  0  0  0  0
 30 56  1  0  0  0  0
 31 57  1  0  0  0  0
 32 33  2  0  0  0  0
 32 35  1  0  0  0  0
 33 34  1  0  0  0  0
 35 59  1  0  0  0  0
 35 60  1  0  0  0  0
 35 61  1  0  0  0  0
 36 37  1  0  0  0  0
M  END
> <PUBCHEM_COMPOUND_CID>
84973068

> <PUBCHEM_CONFORMER_RMSD>
1.2

> <PUBCHEM_CONFORMER_DIVERSEORDER>
8
17
12
112
41
73
219
56
203
20
155
215
36
76
67
38
72
31
45
40
92
58
106
91
25
109
194
174
136
55
171
154
39
80
210
93
79
9
176
152
183
50
54
192
33
169
87
46
197
126
94
52
89
53
113
190
77
188
104
165
69
28
75
26
216
118
121
122
65
97
125
34
218
86
160
161
129
151
35
107
18
110
230
15
123
27
116
221
48
177
59
105
148
179
147
207
159
22
173
81
227
195
13
30
51
115
98
223
220
181
23
204
225
61
189
166
202
37
71
83
144
145
88
168
24
139
49
198
167
140
226
63
95
64
187
74
164
232
60
127
138
182
114
68
162
201
163
70
108
191
217
157
119
128
100
78
175
66
209
57
149
62
141
85
196
84
208
47
7
11
43
170
101
5
172
184
131
111
228
134
200
1
224
135
3
132
117
32
102
180
82
120
199
158
231
229
103
6
96
29
137
146
213
212
185
205
19
143
21
14
211
42
153
44
133
124
186
150
90
142
4
214
130
206
16
10
99
2
178
222
156
193

> <PUBCHEM_MMFF94_PARTIAL_CHARGES>
44
1 -0.08
10 -0.23
11 -0.42
12 -0.41
13 -0.41
14 -0.88
15 0.27
17 0.18
18 0.18
19 -0.14
2 -0.57
20 0.05
21 0.27
22 0.27
23 0.44
24 0.54
25 0.09
26 -0.15
27 -0.14
28 -0.15
29 0.44
3 -0.57
30 -0.15
31 -0.15
32 -0.33
33 0.14
34 0.72
35 0.18
36 0.21
37 0.37
4 0.24
5 -0.81
51 0.37
52 0.15
53 0.15
56 0.15
57 0.15
58 0.37
6 -0.57
62 0.4
63 0.4
7 -0.49
8 -0.73
9 0.65

> <PUBCHEM_EFFECTIVE_ROTOR_COUNT>
9.8

> <PUBCHEM_PHARMACOPHORE_FEATURES>
13
1 14 donor
1 2 acceptor
1 3 acceptor
1 5 cation
1 7 donor
1 8 donor
3 13 14 37 cation
3 9 12 36 cation
5 1 6 19 20 23 rings
5 4 12 13 36 37 rings
5 9 10 11 32 33 rings
6 15 16 17 18 19 20 rings
6 25 26 27 28 30 31 rings

> <PUBCHEM_HEAVY_ATOM_COUNT>
37

> <PUBCHEM_ATOM_DEF_STEREO_COUNT>
1

> <PUBCHEM_ATOM_UDEF_STEREO_COUNT>
0

> <PUBCHEM_BOND_DEF_STEREO_COUNT>
0

> <PUBCHEM_BOND_UDEF_STEREO_COUNT>
0

> <PUBCHEM_ISOTOPIC_ATOM_COUNT>
0

> <PUBCHEM_COMPONENT_COUNT>
1

> <PUBCHEM_CACTVS_TAUTO_COUNT>
12

> <PUBCHEM_CONFORMER_ID>
0510960C00000008

> <PUBCHEM_MMFF94_ENERGY>
76.2844

> <PUBCHEM_FEATURE_SELFOVERLAP>
66.105

> <PUBCHEM_SHAPE_FINGERPRINT>
10100884 174 18335419041970269490
10190206 1 12901542408308096783
10254770 206 18343862234176461855
10952577 141 8286195063257122577
11146851 88 18335701658827739387
11410812 94 15792005628999547220
12047536 79 12318920002123607955
12218070 45 16629945728991059285
12559416 138 18338227155448472590
12758862 65 17846504759443345730
12838863 1 18408322176959406186
14068700 675 18201723959544006913
14201967 126 9799692597295617755
14359421 15 17821723914737229315
14617042 71 9511468831588203855
14664723 55 8286204980463391070
15320295 40 18113898239054898950
15350500 16 18410572889940065419
15684389 69 18409174290877685764
16993427 108 18412824672753697600
19841028 212 18410294739273349096
2026 5 18333449833576397251
20609170 85 12974182843464788230
20771845 171 18043535113049107684
21130935 74 18122342381979341338
21136928 129 11527365157417452726
212700 22 18040434395510451514
21344244 78 16271662164916505041
21360443 89 18335415743724672146
21987483 16 18341327877555051712
23389318 12 17531541906426714462
23528940 14 18263358111175204202
23569943 247 18410298030352837963
24203241 11 18130216168474884566
25242607 90 18131630105957182497
397830 11 10303820908915614429
3986486 107 15357972352708738087
406291 66 18410576171311163694
439807 62 18337114566251064789
44880568 143 16298104259727721564
4760202 70 18261685827003313964
54039377 194 18409448094462557143
5718773 13 18261114045779375868
5874358 3 18412826889262394139
96874 4 18410857654877549207
9689198 14 11455888070631738068
9962374 69 18059009614175250487

> <PUBCHEM_SHAPE_MULTIPOLES>
697.87
36.37
4.71
1.62
11.33
2.78
0.06
-52.04
-3.24
-3.57
-1.29
1.85
0.31
-4.02

> <PUBCHEM_SHAPE_SELFOVERLAP>
1499.317

> <PUBCHEM_SHAPE_VOLUME>
388.9

> <PUBCHEM_COORDINATE_TYPE>
2
5
10

$$$$
56600154
  -OEChem-05102415103D

 63 67  0     1  0  0  0  0  0999 V2000
   -4.2905   -1.5554    0.6815 S   0  0  0  0  0  0  0  0  0  0  0  0
   -4.6522    2.5980   -1.4562 O   0  0  0  0  0  0  0  0  0  0  0  0
    0.7924    0.4434    1.7427 O   0  0  0  0  0  0  0  0  0  0  0  0
   -7.8672   -3.4790    0.6580 N   0  0  2  0  0  0  0  0  0  0  0  0
   -5.8935   -0.0330   -0.6775 N   0  0  0  0  0  0  0  0  0  0  0  0
   -3.6872    0.8313   -0.2295 N   0  0  0  0  0  0  0  0  0  0  0  0
    1.6384    2.5596    1.3120 N   0  0  0  0  0  0  0  0  0  0  0  0
    9.2080   -2.2803   -0.7144 N   0  0  0  0  0  0  0  0  0  0  0  0
   -8.3380   -2.9356   -0.6361 C   0  0  0  0  0  0  0  0  0  0  0  0
   -7.9699   -1.4423   -0.7943 C   0  0  0  0  0  0  0  0  0  0  0  0
   -6.3871   -3.4638    0.7549 C   0  0  0  0  0  0  0  0  0  0  0  0
   -6.5617   -1.2000   -0.3823 C   0  0  0  0  0  0  0  0  0  0  0  0
   -5.8545   -2.1298    0.3499 C   0  0  0  0  0  0  0  0  0  0  0  0
   -8.3738   -4.8351    0.8652 C   0  0  0  0  0  0  0  0  0  0  0  0
   -4.6817   -0.1085   -0.1670 C   0  0  0  0  0  0  0  0  0  0  0  0
   -3.7071    2.1053   -0.8496 C   0  0  0  0  0  0  0  0  0  0  0  0
   -2.4681    2.9166   -0.7217 C   0  0  0  0  0  0  0  0  0  0  0  0
   -0.4575    3.4895    0.4890 C   0  0  0  0  0  0  0  0  0  0  0  0
   -1.6216    2.7304    0.3713 C   0  0  0  0  0  0  0  0  0  0  0  0
    0.4473    3.2926    1.6585 C   0  0  0  0  0  0  0  0  0  0  0  0
   -2.1504    3.8620   -1.6969 C   0  0  0  0  0  0  0  0  0  0  0  0
   -0.1397    4.4350   -0.4861 C   0  0  0  0  0  0  0  0  0  0  0  0
   -0.9863    4.6212   -1.5791 C   0  0  0  0  0  0  0  0  0  0  0  0
    3.0189    0.5722    1.0185 C   0  0  0  0  0  0  0  0  0  0  0  0
    5.4741   -0.5603    0.3316 C   0  0  0  0  0  0  0  0  0  0  0  0
    1.7115    1.1752    1.3845 C   0  0  0  0  0  0  0  0  0  0  0  0
    6.7473   -1.1475   -0.0249 C   0  0  0  0  0  0  0  0  0  0  0  0
    4.1944    1.3063    1.1775 C   0  0  0  0  0  0  0  0  0  0  0  0
    3.0710   -0.7280    0.5161 C   0  0  0  0  0  0  0  0  0  0  0  0
    5.4219    0.7400    0.8340 C   0  0  0  0  0  0  0  0  0  0  0  0
    4.2986   -1.2941    0.1726 C   0  0  0  0  0  0  0  0  0  0  0  0
    6.8199   -2.0936   -1.0414 C   0  0  0  0  0  0  0  0  0  0  0  0
    7.9036   -0.7672    0.6472 C   0  0  0  0  0  0  0  0  0  0  0  0
    8.0630   -2.6251   -1.3451 C   0  0  0  0  0  0  0  0  0  0  0  0
    9.0982   -1.3579    0.2680 C   0  0  0  0  0  0  0  0  0  0  0  0
    8.1792   -3.6425   -2.4307 C   0  0  0  0  0  0  0  0  0  0  0  0
   -7.9085   -3.5129   -1.4664 H   0  0  0  0  0  0  0  0  0  0  0  0
   -9.4289   -3.0231   -0.7109 H   0  0  0  0  0  0  0  0  0  0  0  0
   -8.6294   -0.8329   -0.1645 H   0  0  0  0  0  0  0  0  0  0  0  0
   -8.1215   -1.1328   -1.8340 H   0  0  0  0  0  0  0  0  0  0  0  0
   -5.9482   -4.2307    0.1033 H   0  0  0  0  0  0  0  0  0  0  0  0
   -6.0931   -3.6844    1.7879 H   0  0  0  0  0  0  0  0  0  0  0  0
   -9.4694   -4.8396    0.8681 H   0  0  0  0  0  0  0  0  0  0  0  0
   -8.0556   -5.2196    1.8405 H   0  0  0  0  0  0  0  0  0  0  0  0
   -8.0281   -5.5286    0.0903 H   0  0  0  0  0  0  0  0  0  0  0  0
   -2.8264    0.5249    0.2141 H   0  0  0  0  0  0  0  0  0  0  0  0
   -1.8606    2.0239    1.1611 H   0  0  0  0  0  0  0  0  0  0  0  0
    0.7628    4.2645    2.0557 H   0  0  0  0  0  0  0  0  0  0  0  0
   -0.0696    2.7740    2.4746 H   0  0  0  0  0  0  0  0  0  0  0  0
   -2.7935    4.0182   -2.5589 H   0  0  0  0  0  0  0  0  0  0  0  0
    0.7645    5.0326   -0.4054 H   0  0  0  0  0  0  0  0  0  0  0  0
   -0.7380    5.3564   -2.3390 H   0  0  0  0  0  0  0  0  0  0  0  0
    2.4152    3.0989    0.9445 H   0  0  0  0  0  0  0  0  0  0  0  0
    4.1999    2.3118    1.5877 H   0  0  0  0  0  0  0  0  0  0  0  0
    2.1658   -1.3156    0.3872 H   0  0  0  0  0  0  0  0  0  0  0  0
    6.3084    1.3569    0.9531 H   0  0  0  0  0  0  0  0  0  0  0  0
    4.2931   -2.3193   -0.1874 H   0  0  0  0  0  0  0  0  0  0  0  0
    5.9558   -2.4069   -1.6184 H   0  0  0  0  0  0  0  0  0  0  0  0
    7.9144   -0.0576    1.4673 H   0  0  0  0  0  0  0  0  0  0  0  0
   10.0277   -1.1013    0.7655 H   0  0  0  0  0  0  0  0  0  0  0  0
    7.8448   -3.2215   -3.3843 H   0  0  0  0  0  0  0  0  0  0  0  0
    9.2165   -3.9715   -2.5524 H   0  0  0  0  0  0  0  0  0  0  0  0
    7.5718   -4.5221   -2.1949 H   0  0  0  0  0  0  0  0  0  0  0  0
  1 13  1  0  0  0  0
  1 15  1  0  0  0  0
  2 16  2  0  0  0  0
  3 26  2  0  0  0  0
  4  9  1  0  0  0  0
  4 11  1  0  0  0  0
  4 14  1  0  0  0  0
  5 12  1  0  0  0  0
  5 15  2  0  0  0  0
  6 15  1  0  0  0  0
  6 16  1  0  0  0  0
  6 46  1  0  0  0  0
  7 20  1  0  0  0  0
  7 26  1  0  0  0  0
  7 53  1  0  0  0  0
  8 34  2  0  0  0  0
  8 35  1  0  0  0  0
  9 10  1  0  0  0  0
  9 37  1  0  0  0  0
  9 38  1  0  0  0  0
 10 12  1  0  0  0  0
 10 39  1  0  0  0  0
 10 40  1  0  0  0  0
 11 13  1  0  0  0  0
 11 41  1  0  0  0  0
 11 42  1  0  0  0  0
 12 13  2  0  0  0  0
 14 43  1  0  0  0  0
 14 44  1  0  0  0  0
 14 45  1  0  0  0  0
 16 17  1  0  0  0  0
 17 19  1  0  0  0  0
 17 21  2  0  0  0  0
 18 19  2  0  0  0  0
 18 20  1  0  0  0  0
 18 22  1  0  0  0  0
 19 47  1  0  0  0  0
 20 48  1  0  0  0  0
 20 49  1  0  0  0  0
 21 23  1  0  0  0  0
 21 50  1  0  0  0  0
 22 23  2  0  0  0  0
 22 51  1  0  0  0  0
 23 52  1  0  0  0  0
 24 26  1  0  0  0  0
 24 28  2  0  0  0  0
 24 29  1  0  0  0  0
 25 27  1  0  0  0  0
 25 30  2  0  0  0  0
 25 31  1  0  0  0  0
 27 32  2  0  0  0  0
 27 33  1  0  0  0  0
 28 30  1  0  0  0  0
 28 54  1  0  0  0  0
 29 31  2  0  0  0  0
 29 55  1  0  0  0  0
 30 56  1  0  0  0  0
 31 57  1  0  0  0  0
 32 34  1  0  0  0  0
 32 58  1  0  0  0  0
 33 35  2  0  0  0  0
 33 59  1  0  0  0  0
 34 36  1  0  0  0  0
 35 60  1  0  0  0  0
 36 61  1  0  0  0  0
 36 62  1  0  0  0  0
 36 63  1  0  0  0  0
M  END
> <PUBCHEM_COMPOUND_CID>
56600154

> <PUBCHEM_CONFORMER_RMSD>
1

> <PUBCHEM_CONFORMER_DIVERSEORDER>
12
239
106
195
155
44
334
63
121
124
191
137
346
297
207
226
14
199
111
57
221
342
3
306
348
244
368
290
82
378
38
83
299
66
130
102
166
192
202
163
162
252
169
377
303
253
280
49
352
296
209
285
141
99
206
236
364
72
70
133
101
214
372
327
351
315
278
200
47
194
89
149
188
178
362
359
85
146
343
7
289
126
80
193
238
171
274
225
210
73
220
97
313
316
81
54
183
241
13
287
270
153
165
190
36
67
136
104
321
21
371
46
87
23
108
237
242
125
329
176
282
128
119
374
35
300
181
201
170
147
168
198
33
8
71
189
336
281
69
26
152
177
338
266
105
223
27
29
213
140
218
117
358
158
139
279
40
180
366
88
100
284
94
258
271
273
134
187
243
92
230
276
32
345
15
269
305
59
197
55
115
330
246
142
120
174
48
135
375
186
93
277
203
354
204
98
6
233
340
22
10
212
78
219
18
248
365
275
156
96
30
332
161
222
369
347
103
143
324
231
129
317
291
319
328
376
363
185
262
259
227
288
77
307
132
373
159
379
34
215
228
145
350
164
308
64
113
45
318
286
335
331
322
131
217
267
58
109
19
24
52
182
76
150
37
16
173
265
240
5
205
301
196
2
264
68
42
20
326
224
251
283
344
110
172
361
360
323
339
175
179
11
304
1
257
84
208
25
17
154
122
333
41
91
160
310
353
245
229
272
320
292
268
28
144
370
293
39
74
86
298
184
151
75
216
312
114
107
357
367
234
295
256
112
157
90
294
118
167
61
356
127
261
232
314
247
309
138
65
4
355
337
325
260
79
95
56
302
349
60
148
211
255
53
116
254
341
31
263
43
123
250
51
311
50
9
249
62
235

> <PUBCHEM_MMFF94_PARTIAL_CHARGES>
47
1 -0.08
10 0.18
11 0.45
12 0.05
13 -0.14
14 0.27
15 0.44
16 0.54
17 0.09
18 -0.14
19 -0.15
2 -0.57
20 0.44
21 -0.15
22 -0.15
23 -0.15
24 0.09
26 0.54
28 -0.15
29 -0.15
3 -0.57
30 -0.15
31 -0.15
32 -0.15
33 -0.15
34 0.17
35 0.16
36 0.14
4 -0.81
46 0.37
47 0.15
5 -0.57
50 0.15
51 0.15
52 0.15
53 0.37
54 0.15
55 0.15
56 0.15
57 0.15
58 0.15
59 0.15
6 -0.49
60 0.15
7 -0.73
8 -0.62
9 0.27

> <PUBCHEM_EFFECTIVE_ROTOR_COUNT>
8.8

> <PUBCHEM_PHARMACOPHORE_FEATURES>
11
1 2 acceptor
1 3 acceptor
1 4 cation
1 6 donor
1 7 donor
1 8 acceptor
5 1 5 12 13 15 rings
6 17 18 19 21 22 23 rings
6 24 25 28 29 30 31 rings
6 4 9 10 11 12 13 rings
6 8 27 32 33 34 35 rings

> <PUBCHEM_HEAVY_ATOM_COUNT>
36

> <PUBCHEM_ATOM_DEF_STEREO_COUNT>
0

> <PUBCHEM_ATOM_UDEF_STEREO_COUNT>
0

> <PUBCHEM_BOND_DEF_STEREO_COUNT>
0

> <PUBCHEM_BOND_UDEF_STEREO_COUNT>
0

> <PUBCHEM_ISOTOPIC_ATOM_COUNT>
0

> <PUBCHEM_COMPONENT_COUNT>
1

> <PUBCHEM_CACTVS_TAUTO_COUNT>
6

> <PUBCHEM_CONFORMER_ID>
035FA65A0000000C

> <PUBCHEM_MMFF94_ENERGY>
100.0808

> <PUBCHEM_FEATURE_SELFOVERLAP>
55.893

> <PUBCHEM_SHAPE_FINGERPRINT>
10258705 36 18343306933760774878
10740516 88 18412268371620731347
11059845 2 18059030393554953753
11411753 3 18269535213853477848
11607047 191 16841930274754509825
11621639 208 17392765078415164547
117089 54 18411138052165667071
11756154 67 18409165541538712799
11828042 163 18335969889512336077
11973864 48 17346607353559704470
12124843 1 17677045858580991583
12342043 65 18272642463598638632
12717326 120 18336815409105149554
12988421 55 12175621742144373569
1361 4 18266173925492507898
15145343 55 18262788563545088554
15152005 77 18202278135116736687
15510800 12 18341886398679733125
15773216 30 18194403523059765224
15781502 685 17822289042603131418
16067689 302 18272366504209092824
16067689 68 18131082541410397579
19246450 95 16128382524183786289
20737093 193 11983001327978378897
208703 8 18334571369210645365
20982279 24 16987728884057006998
21095086 4 18412545435591812195
21196832 93 18410855426538582722
21307412 95 18336814317957096421
21344244 246 18334577992958388692
21362857 166 18334861641261423924
21716022 299 18041849548669988141
21796203 349 16774072982363642032
21867018 265 18336555907017432172
21867126 195 18270955847321854310
22899556 105 18337968878085948132
23569914 2 13553186838717973158
255183 451 18262234547086654269
3862424 121 18409453617183923116
4330586 98 17749965469460743650
437795 150 18335699412596104495
44280117 145 18337392643772078604
44426699 153 18059852909534921432
44426699 300 18337405897555111363
44880168 125 17917417757339477719
484989 97 18342173350531011376
57816373 69 18055343902601324381
58083652 198 15122923142216510136
58260988 114 17988650644758447569
999808 66 17845930728564250644

> <PUBCHEM_SHAPE_MULTIPOLES>
708.07
30.98
6.78
1.59
16.26
2.82
-0.37
-52.96
-6.72
-9.23
-1.9
1.48
0.32
6.6

> <PUBCHEM_SHAPE_SELFOVERLAP>
1535.1

> <PUBCHEM_SHAPE_VOLUME>
390

> <PUBCHEM_COORDINATE_TYPE>
2
5
10

$$$$
84973069
  -OEChem-05102415103D

 67 72  0     1  0  0  0  0  0999 V2000
    2.0173   -0.2728   -0.2577 S   0  0  0  0  0  0  0  0  0  0  0  0
   -6.4751    2.7678    1.2392 S   0  0  0  0  0  0  0  0  0  0  0  0
    9.3074    2.7381   -0.6306 O   0  0  0  0  0  0  0  0  0  0  0  0
    0.7096   -4.7000    0.5297 O   0  0  0  0  0  0  0  0  0  0  0  0
   -6.5289   -1.5471   -0.1352 O   0  0  0  0  0  0  0  0  0  0  0  0
    7.0833    1.1317    0.1273 N   0  0  0  0  0  0  0  0  0  0  0  0
    2.8888   -2.6258    0.3907 N   0  0  0  0  0  0  0  0  0  0  0  0
    0.5199   -2.4116   -0.0037 N   0  0  0  0  0  0  0  0  0  0  0  0
   -4.5362   -1.0509   -1.2132 N   0  0  0  0  0  0  0  0  0  0  0  0
   -4.7394    1.5596   -0.2474 N   0  0  0  0  0  0  0  0  0  0  0  0
   -2.1068    4.9394   -0.2977 N   0  0  0  0  0  0  0  0  0  0  0  0
    6.1120    0.0667   -0.1139 C   0  0  1  0  0  0  0  0  0  0  0  0
    6.3102   -1.0748    0.9094 C   0  0  0  0  0  0  0  0  0  0  0  0
    4.6806    0.6483   -0.0487 C   0  0  0  0  0  0  0  0  0  0  0  0
    5.3487   -2.2500    0.6490 C   0  0  0  0  0  0  0  0  0  0  0  0
    8.4526    0.5985    0.1289 C   0  0  0  0  0  0  0  0  0  0  0  0
    6.9569    2.1917   -0.8827 C   0  0  0  0  0  0  0  0  0  0  0  0
    3.6848   -0.4606    0.0254 C   0  0  0  0  0  0  0  0  0  0  0  0
    3.9691   -1.7688    0.3630 C   0  0  0  0  0  0  0  0  0  0  0  0
    9.4481    1.7295    0.3705 C   0  0  0  0  0  0  0  0  0  0  0  0
    7.9883    3.2850   -0.6182 C   0  0  0  0  0  0  0  0  0  0  0  0
    1.8051   -1.9455    0.0816 C   0  0  0  0  0  0  0  0  0  0  0  0
    0.0353   -3.7251    0.2154 C   0  0  0  0  0  0  0  0  0  0  0  0
   -1.4319   -3.9156    0.0716 C   0  0  0  0  0  0  0  0  0  0  0  0
   -2.1658   -3.0746   -0.7651 C   0  0  0  0  0  0  0  0  0  0  0  0
   -2.0750   -4.9350    0.7739 C   0  0  0  0  0  0  0  0  0  0  0  0
   -3.5427   -3.2530   -0.8996 C   0  0  0  0  0  0  0  0  0  0  0  0
   -4.3279   -2.3534   -1.7931 C   0  0  0  0  0  0  0  0  0  0  0  0
   -3.4519   -5.1132    0.6396 C   0  0  0  0  0  0  0  0  0  0  0  0
   -4.1857   -4.2725   -0.1974 C   0  0  0  0  0  0  0  0  0  0  0  0
   -5.6364   -0.7532   -0.4207 C   0  0  0  0  0  0  0  0  0  0  0  0
   -5.7194    0.6430    0.0799 C   0  0  0  0  0  0  0  0  0  0  0  0
   -5.0341    2.7136    0.3088 C   0  0  0  0  0  0  0  0  0  0  0  0
   -6.7415    1.1126    0.8780 C   0  0  0  0  0  0  0  0  0  0  0  0
   -4.2406    3.9142    0.1928 C   0  0  0  0  0  0  0  0  0  0  0  0
   -4.7925    5.1656    0.4435 C   0  0  0  0  0  0  0  0  0  0  0  0
   -2.9050    3.8556   -0.1714 C   0  0  0  0  0  0  0  0  0  0  0  0
   -4.0031    6.3041    0.3239 C   0  0  0  0  0  0  0  0  0  0  0  0
   -2.6782    6.1386   -0.0460 C   0  0  0  0  0  0  0  0  0  0  0  0
    6.2652   -0.3603   -1.1170 H   0  0  0  0  0  0  0  0  0  0  0  0
    6.1522   -0.6929    1.9272 H   0  0  0  0  0  0  0  0  0  0  0  0
    7.3076   -1.5207    0.8762 H   0  0  0  0  0  0  0  0  0  0  0  0
    4.4602    1.2503   -0.9376 H   0  0  0  0  0  0  0  0  0  0  0  0
    4.5606    1.2860    0.8368 H   0  0  0  0  0  0  0  0  0  0  0  0
    5.3448   -2.9224    1.5140 H   0  0  0  0  0  0  0  0  0  0  0  0
    5.7021   -2.8267   -0.2145 H   0  0  0  0  0  0  0  0  0  0  0  0
    8.6308   -0.1041    0.9460 H   0  0  0  0  0  0  0  0  0  0  0  0
    8.6787    0.1033   -0.8240 H   0  0  0  0  0  0  0  0  0  0  0  0
    7.1076    1.7828   -1.8902 H   0  0  0  0  0  0  0  0  0  0  0  0
    5.9788    2.6798   -0.8498 H   0  0  0  0  0  0  0  0  0  0  0  0
    9.3188    2.1790    1.3628 H   0  0  0  0  0  0  0  0  0  0  0  0
   10.4717    1.3452    0.3125 H   0  0  0  0  0  0  0  0  0  0  0  0
    7.9368    4.0449   -1.4047 H   0  0  0  0  0  0  0  0  0  0  0  0
    7.8095    3.7874    0.3404 H   0  0  0  0  0  0  0  0  0  0  0  0
   -0.1497   -1.6798   -0.2211 H   0  0  0  0  0  0  0  0  0  0  0  0
   -1.6894   -2.2937   -1.3511 H   0  0  0  0  0  0  0  0  0  0  0  0
   -1.5230   -5.5977    1.4351 H   0  0  0  0  0  0  0  0  0  0  0  0
   -3.7977   -2.2105   -2.7419 H   0  0  0  0  0  0  0  0  0  0  0  0
   -5.2997   -2.7964   -2.0414 H   0  0  0  0  0  0  0  0  0  0  0  0
   -3.9530   -5.9057    1.1877 H   0  0  0  0  0  0  0  0  0  0  0  0
   -5.2581   -4.4222   -0.2907 H   0  0  0  0  0  0  0  0  0  0  0  0
   -3.8428   -0.3297   -1.3911 H   0  0  0  0  0  0  0  0  0  0  0  0
   -7.6068    0.5882    1.2583 H   0  0  0  0  0  0  0  0  0  0  0  0
   -5.8333    5.3198    0.7110 H   0  0  0  0  0  0  0  0  0  0  0  0
   -2.4077    2.9126   -0.3793 H   0  0  0  0  0  0  0  0  0  0  0  0
   -4.4127    7.2906    0.5088 H   0  0  0  0  0  0  0  0  0  0  0  0
   -2.0208    6.9949   -0.1544 H   0  0  0  0  0  0  0  0  0  0  0  0
  1 18  1  0  0  0  0
  1 22  1  0  0  0  0
  2 33  1  0  0  0  0
  2 34  1  0  0  0  0
  3 20  1  0  0  0  0
  3 21  1  0  0  0  0
  4 23  2  0  0  0  0
  5 31  2  0  0  0  0
  6 12  1  0  0  0  0
  6 16  1  0  0  0  0
  6 17  1  0  0  0  0
  7 19  1  0  0  0  0
  7 22  2  0  0  0  0
  8 22  1  0  0  0  0
  8 23  1  0  0  0  0
  8 55  1  0  0  0  0
  9 28  1  0  0  0  0
  9 31  1  0  0  0  0
  9 62  1  0  0  0  0
 10 32  1  0  0  0  0
 10 33  2  0  0  0  0
 11 37  1  0  0  0  0
 11 39  2  0  0  0  0
 12 13  1  0  0  0  0
 12 14  1  0  0  0  0
 12 40  1  0  0  0  0
 13 15  1  0  0  0  0
 13 41  1  0  0  0  0
 13 42  1  0  0  0  0
 14 18  1  0  0  0  0
 14 43  1  0  0  0  0
 14 44  1  0  0  0  0
 15 19  1  0  0  0  0
 15 45  1  0  0  0  0
 15 46  1  0  0  0  0
 16 20  1  0  0  0  0
 16 47  1  0  0  0  0
 16 48  1  0  0  0  0
 17 21  1  0  0  0  0
 17 49  1  0  0  0  0
 17 50  1  0  0  0  0
 18 19  2  0  0  0  0
 20 51  1  0  0  0  0
 20 52  1  0  0  0  0
 21 53  1  0  0  0  0
 21 54  1  0  0  0  0
 23 24  1  0  0  0  0
 24 25  1  0  0  0  0
 24 26  2  0  0  0  0
 25 27  2  0  0  0  0
 25 56  1  0  0  0  0
 26 29  1  0  0  0  0
 26 57  1  0  0  0  0
 27 28  1  0  0  0  0
 27 30  1  0  0  0  0
 28 58  1  0  0  0  0
 28 59  1  0  0  0  0
 29 30  2  0  0  0  0
 29 60  1  0  0  0  0
 30 61  1  0  0  0  0
 31 32  1  0  0  0  0
 32 34  2  0  0  0  0
 33 35  1  0  0  0  0
 34 63  1  0  0  0  0
 35 36  1  0  0  0  0
 35 37  2  0  0  0  0
 36 38  2  0  0  0  0
 36 64  1  0  0  0  0
 37 65  1  0  0  0  0
 38 39  1  0  0  0  0
 38 66  1  0  0  0  0
 39 67  1  0  0  0  0
M  END
> <PUBCHEM_COMPOUND_CID>
84973069

> <PUBCHEM_CONFORMER_RMSD>
1.2

> <PUBCHEM_CONFORMER_DIVERSEORDER>
1
110
36
78
87
308
88
312
127
134
318
67
285
86
70
142
250
25
79
296
123
168
24
92
74
209
217
124
98
253
177
72
141
173
73
289
268
90
264
298
154
97
52
31
192
33
112
85
91
216
122
76
50
300
228
152
233
265
292
45
301
307
93
295
140
231
94
212
222
47
146
68
240
278
53
313
256
57
176
172
149
120
180
178
283
55
262
59
46
63
27
197
202
69
160
184
137
62
181
239
171
251
56
248
214
286
151
136
54
60
145
280
236
182
221
297
279
169
213
126
201
187
147
71
230
101
48
191
22
66
157
273
227
260
190
242
206
305
89
159
170
315
215
314
188
162
263
81
321
96
277
185
259
193
310
189
199
281
49
270
203
15
107
135
288
249
175
266
226
200
51
118
196
272
128
220
219
302
195
225
133
293
294
299
223
179
238
138
61
39
148
105
218
106
252
42
243
211
20
275
99
121
246
255
102
30
29
114
271
254
103
19
267
80
164
198
183
291
34
241
116
311
16
194
43
113
5
232
40
41
163
155
269
153
4
258
284
174
95
210
319
204
320
8
10
207
244
143
224
229
186
317
290
104
276
131
306
234
28
167
166
77
83
257
161
132
247
129
245
12
82
64
6
237
23
37
32
309
282
17
44
35
26
58
7
11
150
316
18
156
205
119
274
115
111
261
3
9
303
144
38
287
125
165
65
75
208
130
304
235
158
108
13
139
100
14
117
84
109
2
21

> <PUBCHEM_MMFF94_PARTIAL_CHARGES>
49
1 -0.08
10 -0.57
11 -0.62
12 0.27
14 0.18
15 0.18
16 0.27
17 0.27
18 -0.14
19 0.05
2 -0.08
20 0.28
21 0.28
22 0.44
23 0.54
24 0.09
25 -0.15
26 -0.15
27 -0.14
28 0.44
29 -0.15
3 -0.56
30 -0.15
31 0.72
32 0.14
33 0.33
34 -0.11
35 0.05
36 -0.15
37 0.16
38 -0.15
39 0.16
4 -0.57
5 -0.57
55 0.37
56 0.15
57 0.15
6 -0.81
60 0.15
61 0.15
62 0.37
63 0.15
64 0.15
65 0.15
66 0.15
67 0.15
7 -0.57
8 -0.49
9 -0.73

> <PUBCHEM_EFFECTIVE_ROTOR_COUNT>
11

> <PUBCHEM_PHARMACOPHORE_FEATURES>
14
1 10 acceptor
1 11 acceptor
1 3 acceptor
1 4 acceptor
1 5 acceptor
1 6 cation
1 8 donor
1 9 donor
5 1 7 18 19 22 rings
5 2 10 32 33 34 rings
6 11 35 36 37 38 39 rings
6 12 13 14 15 18 19 rings
6 24 25 26 27 29 30 rings
6 3 6 16 17 20 21 rings

> <PUBCHEM_HEAVY_ATOM_COUNT>
39

> <PUBCHEM_ATOM_DEF_STEREO_COUNT>
1

> <PUBCHEM_ATOM_UDEF_STEREO_COUNT>
0

> <PUBCHEM_BOND_DEF_STEREO_COUNT>
0

> <PUBCHEM_BOND_UDEF_STEREO_COUNT>
0

> <PUBCHEM_ISOTOPIC_ATOM_COUNT>
0

> <PUBCHEM_COMPONENT_COUNT>
1

> <PUBCHEM_CACTVS_TAUTO_COUNT>
6

> <PUBCHEM_CONFORMER_ID>
0510960D00000001

> <PUBCHEM_MMFF94_ENERGY>
83.8253

> <PUBCHEM_FEATURE_SELFOVERLAP>
71.119

> <PUBCHEM_SHAPE_FINGERPRINT>
10917259 128 18340190961220352714
10939801 23 18409731729333154801
10951579 204 18338817662354261470
10985338 8 18271233929385339706
11181472 205 18261113020263049414
11204353 107 18050284760979723173
11408170 253 18342182189120526080
11476731 118 18196085779938969048
11973864 220 18117847809820151756
12013929 29 18340204103551726590
12218070 45 18334858285943094940
13347071 3 18341332313728929180
13383665 225 18261407676362594924
14747282 140 18410011001878249893
14790565 3 18122623856334053127
15274700 147 18337972171602995169
15320467 1 18411135823357631041
15400415 2 18123185697553006985
155225 5 18411417293827923099
15538507 32 18411984693183646177
16126227 98 18411140233639755794
16990350 14 18050565145261542307
16992828 155 18413390943439583399
20737093 133 18411986828653129073
21772524 286 18409729578156199020
23516275 100 18339082567521768701
3525247 154 18273209820014146648
437795 171 17975412413212245413
44802255 64 17346037886706949071
4487111 67 18268425738116923713
5265222 85 18340770334786380761
5776283 40 18342735260521884313
6036956 94 18194113020335481869
6201320 215 18412541029266538202
6475588 51 18339356474207057924

> <PUBCHEM_SHAPE_MULTIPOLES>
762.81
25.98
10.42
0.97
55.64
6.33
-0.12
25.31
0.54
-17.73
0.81
-0.63
-0.3
-3.4

> <PUBCHEM_SHAPE_SELFOVERLAP>
1638.344

> <PUBCHEM_SHAPE_VOLUME>
423.2

> <PUBCHEM_COORDINATE_TYPE>
2
5
10

$$$$
84973070
  -OEChem-05102415103D

 66 71  0     1  0  0  0  0  0999 V2000
    2.3433   -0.1307   -0.3463 S   0  0  0  0  0  0  0  0  0  0  0  0
    9.3901    3.4060   -0.7752 O   0  0  0  0  0  0  0  0  0  0  0  0
    1.3495   -4.5572    0.8149 O   0  0  0  0  0  0  0  0  0  0  0  0
   -6.0786   -2.0671   -0.3697 O   0  0  0  0  0  0  0  0  0  0  0  0
    7.2681    1.7035    0.0616 N   0  0  0  0  0  0  0  0  0  0  0  0
    3.3670   -2.3371    0.5484 N   0  0  0  0  0  0  0  0  0  0  0  0
    1.0055   -2.3499    0.0620 N   0  0  0  0  0  0  0  0  0  0  0  0
   -4.0898   -1.5143   -1.4272 N   0  0  0  0  0  0  0  0  0  0  0  0
   -6.2696    2.0476    0.4640 N   0  0  0  0  0  0  0  0  0  0  0  0
   -4.5642    1.1786   -0.6915 N   0  0  0  0  0  0  0  0  0  0  0  0
   -4.5200    7.0660    0.2919 N   0  0  0  0  0  0  0  0  0  0  0  0
    6.3913    0.5466   -0.1080 C   0  0  1  0  0  0  0  0  0  0  0  0
    6.6370   -0.4766    1.0243 C   0  0  0  0  0  0  0  0  0  0  0  0
    4.9181    1.0155   -0.1426 C   0  0  0  0  0  0  0  0  0  0  0  0
    5.7791   -1.7438    0.8463 C   0  0  0  0  0  0  0  0  0  0  0  0
    7.0998    2.6528   -1.0475 C   0  0  0  0  0  0  0  0  0  0  0  0
    8.6732    1.2837    0.1561 C   0  0  0  0  0  0  0  0  0  0  0  0
    4.0081   -0.1579    0.0050 C   0  0  0  0  0  0  0  0  0  0  0  0
    4.3786   -1.4027    0.4734 C   0  0  0  0  0  0  0  0  0  0  0  0
    8.0334    3.8446   -0.8556 C   0  0  0  0  0  0  0  0  0  0  0  0
    9.5691    2.5080    0.3207 C   0  0  0  0  0  0  0  0  0  0  0  0
    2.2470   -1.7768    0.1428 C   0  0  0  0  0  0  0  0  0  0  0  0
    0.6150   -3.6723    0.3891 C   0  0  0  0  0  0  0  0  0  0  0  0
   -0.8267   -3.9917    0.2184 C   0  0  0  0  0  0  0  0  0  0  0  0
   -1.5902   -3.2925   -0.7165 C   0  0  0  0  0  0  0  0  0  0  0  0
   -2.9432   -3.5919   -0.8763 C   0  0  0  0  0  0  0  0  0  0  0  0
   -1.4162   -4.9906    0.9935 C   0  0  0  0  0  0  0  0  0  0  0  0
   -3.7601   -2.8437   -1.8748 C   0  0  0  0  0  0  0  0  0  0  0  0
   -3.5327   -4.5907   -0.1011 C   0  0  0  0  0  0  0  0  0  0  0  0
   -2.7693   -5.2898    0.8339 C   0  0  0  0  0  0  0  0  0  0  0  0
   -5.4482    0.1912   -0.3375 C   0  0  0  0  0  0  0  0  0  0  0  0
   -5.0724    2.2909   -0.2012 C   0  0  0  0  0  0  0  0  0  0  0  0
   -5.2392   -1.2339   -0.7011 C   0  0  0  0  0  0  0  0  0  0  0  0
   -6.5084    0.7003    0.3746 C   0  0  0  0  0  0  0  0  0  0  0  0
   -7.0230    3.0415    1.0794 C   0  0  0  0  0  0  0  0  0  0  0  0
   -4.6137    3.6417   -0.2411 C   0  0  0  0  0  0  0  0  0  0  0  0
   -5.3351    4.6161    0.3531 C   0  0  0  0  0  0  0  0  0  0  0  0
   -6.5865    4.3111    1.0400 C   0  0  0  0  0  0  0  0  0  0  0  0
   -4.8861    5.9655    0.3195 C   0  0  0  0  0  0  0  0  0  0  0  0
    6.6152    0.0430   -1.0610 H   0  0  0  0  0  0  0  0  0  0  0  0
    6.4112   -0.0168    1.9960 H   0  0  0  0  0  0  0  0  0  0  0  0
    7.6662   -0.8426    1.0644 H   0  0  0  0  0  0  0  0  0  0  0  0
    4.6866    1.5138   -1.0908 H   0  0  0  0  0  0  0  0  0  0  0  0
    4.7156    1.7202    0.6745 H   0  0  0  0  0  0  0  0  0  0  0  0
    5.7935   -2.3322    1.7704 H   0  0  0  0  0  0  0  0  0  0  0  0
    6.2085   -2.3673    0.0527 H   0  0  0  0  0  0  0  0  0  0  0  0
    7.3199    2.1665   -2.0067 H   0  0  0  0  0  0  0  0  0  0  0  0
    6.0866    3.0621   -1.0913 H   0  0  0  0  0  0  0  0  0  0  0  0
    8.8732    0.6755    1.0411 H   0  0  0  0  0  0  0  0  0  0  0  0
    8.9730    0.7228   -0.7382 H   0  0  0  0  0  0  0  0  0  0  0  0
    7.9541    4.5225   -1.7116 H   0  0  0  0  0  0  0  0  0  0  0  0
    7.7800    4.4170    0.0452 H   0  0  0  0  0  0  0  0  0  0  0  0
    9.3677    3.0350    1.2615 H   0  0  0  0  0  0  0  0  0  0  0  0
   10.6206    2.2030    0.3311 H   0  0  0  0  0  0  0  0  0  0  0  0
    0.2907   -1.6970   -0.2443 H   0  0  0  0  0  0  0  0  0  0  0  0
   -1.1529   -2.5331   -1.3585 H   0  0  0  0  0  0  0  0  0  0  0  0
   -0.8409   -5.5436    1.7313 H   0  0  0  0  0  0  0  0  0  0  0  0
   -3.2064   -2.7466   -2.8159 H   0  0  0  0  0  0  0  0  0  0  0  0
   -4.6849   -3.3838   -2.1102 H   0  0  0  0  0  0  0  0  0  0  0  0
   -4.5861   -4.8335   -0.2132 H   0  0  0  0  0  0  0  0  0  0  0  0
   -3.2289   -6.0661    1.4386 H   0  0  0  0  0  0  0  0  0  0  0  0
   -3.4475   -0.7593   -1.6509 H   0  0  0  0  0  0  0  0  0  0  0  0
   -7.3839    0.2407    0.8134 H   0  0  0  0  0  0  0  0  0  0  0  0
   -7.9426    2.7512    1.5728 H   0  0  0  0  0  0  0  0  0  0  0  0
   -3.6815    3.8543   -0.7556 H   0  0  0  0  0  0  0  0  0  0  0  0
   -7.1506    5.1090    1.5102 H   0  0  0  0  0  0  0  0  0  0  0  0
  1 18  1  0  0  0  0
  1 22  1  0  0  0  0
  2 20  1  0  0  0  0
  2 21  1  0  0  0  0
  3 23  2  0  0  0  0
  4 33  2  0  0  0  0
  5 12  1  0  0  0  0
  5 16  1  0  0  0  0
  5 17  1  0  0  0  0
  6 19  1  0  0  0  0
  6 22  2  0  0  0  0
  7 22  1  0  0  0  0
  7 23  1  0  0  0  0
  7 55  1  0  0  0  0
  8 28  1  0  0  0  0
  8 33  1  0  0  0  0
  8 62  1  0  0  0  0
  9 32  1  0  0  0  0
  9 34  1  0  0  0  0
  9 35  1  0  0  0  0
 10 31  1  0  0  0  0
 10 32  2  0  0  0  0
 11 39  3  0  0  0  0
 12 13  1  0  0  0  0
 12 14  1  0  0  0  0
 12 40  1  0  0  0  0
 13 15  1  0  0  0  0
 13 41  1  0  0  0  0
 13 42  1  0  0  0  0
 14 18  1  0  0  0  0
 14 43  1  0  0  0  0
 14 44  1  0  0  0  0
 15 19  1  0  0  0  0
 15 45  1  0  0  0  0
 15 46  1  0  0  0  0
 16 20  1  0  0  0  0
 16 47  1  0  0  0  0
 16 48  1  0  0  0  0
 17 21  1  0  0  0  0
 17 49  1  0  0  0  0
 17 50  1  0  0  0  0
 18 19  2  0  0  0  0
 20 51  1  0  0  0  0
 20 52  1  0  0  0  0
 21 53  1  0  0  0  0
 21 54  1  0  0  0  0
 23 24  1  0  0  0  0
 24 25  1  0  0  0  0
 24 27  2  0  0  0  0
 25 26  2  0  0  0  0
 25 56  1  0  0  0  0
 26 28  1  0  0  0  0
 26 29  1  0  0  0  0
 27 30  1  0  0  0  0
 27 57  1  0  0  0  0
 28 58  1  0  0  0  0
 28 59  1  0  0  0  0
 29 30  2  0  0  0  0
 29 60  1  0  0  0  0
 30 61  1  0  0  0  0
 31 33  1  0  0  0  0
 31 34  2  0  0  0  0
 32 36  1  0  0  0  0
 34 63  1  0  0  0  0
 35 38  2  0  0  0  0
 35 64  1  0  0  0  0
 36 37  2  0  0  0  0
 36 65  1  0  0  0  0
 37 38  1  0  0  0  0
 37 39  1  0  0  0  0
 38 66  1  0  0  0  0
M  END
> <PUBCHEM_COMPOUND_CID>
84973070

> <PUBCHEM_CONFORMER_RMSD>
1.4

> <PUBCHEM_CONFORMER_DIVERSEORDER>
1
47
20
62
46
54
120
71
38
64
128
76
84
107
21
94
13
30
83
63
101
48
93
97
82
35
42
106
92
111
9
70
118
124
2
49
67
58
127
15
102
77
59
53
57
87
90
74
126
10
116
69
85
26
78
22
112
104
32
73
103
44
19
91
6
96
125
45
43
4
68
79
98
34
18
36
75
24
25
65
121
89
117
14
122
80
12
16
72
114
113
108
11
123
29
66
7
8
33
52
60
119
86
115
27
61
110
56
55
39
17
105
51
41
37
88
81
5
50
109
40
3
100
99
31
95
28
23

> <PUBCHEM_MMFF94_PARTIAL_CHARGES>
48
1 -0.08
10 -0.57
11 -0.56
12 0.27
14 0.18
15 0.18
16 0.27
17 0.27
18 -0.14
19 0.05
2 -0.56
20 0.28
21 0.28
22 0.44
23 0.54
24 0.09
25 -0.15
26 -0.14
27 -0.15
28 0.44
29 -0.15
3 -0.57
30 -0.15
31 0.14
32 0.14
33 0.72
34 -0.3
35 -0.18
36 -0.11
37 0.06
38 -0.15
39 0.49
4 -0.57
5 -0.81
55 0.37
56 0.15
57 0.15
6 -0.57
60 0.15
61 0.15
62 0.37
63 0.15
64 0.15
65 0.15
66 0.15
7 -0.49
8 -0.73
9 0.33

> <PUBCHEM_EFFECTIVE_ROTOR_COUNT>
10

> <PUBCHEM_PHARMACOPHORE_FEATURES>
14
1 11 acceptor
1 2 acceptor
1 3 acceptor
1 4 acceptor
1 5 cation
1 7 donor
1 8 donor
3 9 10 32 cation
5 1 6 18 19 22 rings
5 9 10 31 32 34 rings
6 12 13 14 15 18 19 rings
6 2 5 16 17 20 21 rings
6 24 25 26 27 29 30 rings
6 9 32 35 36 37 38 rings

> <PUBCHEM_HEAVY_ATOM_COUNT>
39

> <PUBCHEM_ATOM_DEF_STEREO_COUNT>
1

> <PUBCHEM_ATOM_UDEF_STEREO_COUNT>
0

> <PUBCHEM_BOND_DEF_STEREO_COUNT>
0

> <PUBCHEM_BOND_UDEF_STEREO_COUNT>
0

> <PUBCHEM_ISOTOPIC_ATOM_COUNT>
0

> <PUBCHEM_COMPONENT_COUNT>
1

> <PUBCHEM_CACTVS_TAUTO_COUNT>
6

> <PUBCHEM_CONFORMER_ID>
0510960E00000001

> <PUBCHEM_MMFF94_ENERGY>
76.8108

> <PUBCHEM_FEATURE_SELFOVERLAP>
71.233

> <PUBCHEM_SHAPE_FINGERPRINT>
100830 2 18337952286235976967
10917259 128 18339909507681600680
10917259 69 18267585715866302222
10939801 23 18410576150205910669
10951579 204 18337973267378189262
11181472 205 18188208806587761220
11408170 253 18341338902267030640
11479125 193 18195251010527140851
11505856 67 18271227333032861903
11761917 142 18341319085303355312
11828042 53 18411984663857599824
12013929 29 18411134715430057726
12218070 45 18333731325115968405
12559415 180 18336540522017478484
12975358 362 17698729100091743329
13782708 43 11025793180999981094
14747282 140 18334006190986979557
15400415 2 18195805176840508985
16126227 98 18410013242821775989
16728433 281 18413392055472136184
16990350 14 18194115214467722835
16992727 255 18343300336431349906
18339144 43 17823722904497342788
19053607 189 18342446020445132690
19309040 13 18130219363788394759
20737093 133 18410858751229418145
21057603 30 17259942548622991039
21772524 286 18337111263020819836
21792965 106 18411975889259825210
23523788 1 9339200073169399611
23569914 152 17342113507160199934
4366758 26 18268431222421415313
437795 171 17974565793622533629
44280116 191 17976276646145950956
44802255 64 17417252168401165814
44880568 143 18342462565044655550
5265222 85 18412546475348691249
5776283 40 18341890852776902705
59520647 147 18124602981147950889
6036956 94 18055356838885045721
6201320 215 18339078302059886306
636775 72 18267862959956639938
6673363 416 18196650928879021735

> <PUBCHEM_SHAPE_MULTIPOLES>
753.98
28.57
10.44
1.07
50.98
5.31
-0.17
43.19
0.04
-18.09
1.72
-0.45
-0.38
-4.88

> <PUBCHEM_SHAPE_SELFOVERLAP>
1636.832

> <PUBCHEM_SHAPE_VOLUME>
413

> <PUBCHEM_COORDINATE_TYPE>
2
5
10

$$$$
84973072
  -OEChem-05102415103D

 68 73  0     1  0  0  0  0  0999 V2000
    4.0390    0.9779    1.4644 S   0  0  0  0  0  0  0  0  0  0  0  0
   11.1610   -2.3372    0.6669 O   0  0  0  0  0  0  0  0  0  0  0  0
    0.9425    2.1109   -1.8612 O   0  0  0  0  0  0  0  0  0  0  0  0
   -5.5695    2.2838    0.9462 O   0  0  0  0  0  0  0  0  0  0  0  0
   -8.3890   -4.0599    1.4857 O   0  0  0  0  0  0  0  0  0  0  0  0
    8.4228   -1.6835    0.2466 N   0  0  0  0  0  0  0  0  0  0  0  0
    3.5313    0.7906   -1.0701 N   0  0  0  0  0  0  0  0  0  0  0  0
    1.9139    1.9610    0.2816 N   0  0  0  0  0  0  0  0  0  0  0  0
   -4.3903    2.2841   -1.0511 N   0  0  0  0  0  0  0  0  0  0  0  0
   -6.4569   -1.6617   -0.1748 N   0  0  0  0  0  0  0  0  0  0  0  0
   -5.2214   -0.4089   -1.4123 N   0  0  0  0  0  0  0  0  0  0  0  0
   -5.7518   -1.6233   -1.3170 N   0  0  0  0  0  0  0  0  0  0  0  0
   -7.8319   -2.7837    1.3836 N   0  0  0  0  0  0  0  0  0  0  0  0
   -8.0395   -4.8528    0.3909 N   0  0  0  0  0  0  0  0  0  0  0  0
   -6.6932   -4.3843   -1.5416 N   0  0  0  0  0  0  0  0  0  0  0  0
    7.3584   -0.7870   -0.1995 C   0  0  1  0  0  0  0  0  0  0  0  0
    6.5994   -1.4150   -1.3908 C   0  0  0  0  0  0  0  0  0  0  0  0
    6.4100   -0.4819    0.9833 C   0  0  0  0  0  0  0  0  0  0  0  0
    5.5099   -0.4721   -1.9362 C   0  0  0  0  0  0  0  0  0  0  0  0
    9.3087   -2.0383   -0.8709 C   0  0  0  0  0  0  0  0  0  0  0  0
    9.2017   -1.0696    1.3311 C   0  0  0  0  0  0  0  0  0  0  0  0
    5.1608    0.1605    0.4800 C   0  0  0  0  0  0  0  0  0  0  0  0
    4.7300    0.1515   -0.8317 C   0  0  0  0  0  0  0  0  0  0  0  0
   10.4173   -2.9641   -0.3787 C   0  0  0  0  0  0  0  0  0  0  0  0
   10.3137   -2.0176    1.7711 C   0  0  0  0  0  0  0  0  0  0  0  0
    3.0737    1.2635    0.0699 C   0  0  0  0  0  0  0  0  0  0  0  0
    0.9251    2.3461   -0.6577 C   0  0  0  0  0  0  0  0  0  0  0  0
   -0.2469    3.0802   -0.1127 C   0  0  0  0  0  0  0  0  0  0  0  0
   -1.4774    3.0135   -0.7663 C   0  0  0  0  0  0  0  0  0  0  0  0
   -0.1160    3.8365    1.0521 C   0  0  0  0  0  0  0  0  0  0  0  0
   -2.5770    3.7030   -0.2552 C   0  0  0  0  0  0  0  0  0  0  0  0
   -3.8925    3.6328   -0.9543 C   0  0  0  0  0  0  0  0  0  0  0  0
   -1.2154    4.5262    1.5631 C   0  0  0  0  0  0  0  0  0  0  0  0
   -2.4461    4.4592    0.9097 C   0  0  0  0  0  0  0  0  0  0  0  0
   -5.1995    1.7147   -0.0774 C   0  0  0  0  0  0  0  0  0  0  0  0
   -5.6074    0.3056   -0.3123 C   0  0  0  0  0  0  0  0  0  0  0  0
   -6.3974   -0.4769    0.4918 C   0  0  0  0  0  0  0  0  0  0  0  0
   -7.0696   -0.2133    1.7770 C   0  0  0  0  0  0  0  0  0  0  0  0
   -7.1527   -2.8098    0.2383 C   0  0  0  0  0  0  0  0  0  0  0  0
   -7.2781   -4.0608   -0.3618 C   0  0  0  0  0  0  0  0  0  0  0  0
    7.7904    0.1634   -0.5488 H   0  0  0  0  0  0  0  0  0  0  0  0
    6.1393   -2.3628   -1.0801 H   0  0  0  0  0  0  0  0  0  0  0  0
    7.2389   -1.6260   -2.2517 H   0  0  0  0  0  0  0  0  0  0  0  0
    6.8827    0.1988    1.7003 H   0  0  0  0  0  0  0  0  0  0  0  0
    6.1400   -1.4051    1.5125 H   0  0  0  0  0  0  0  0  0  0  0  0
    4.8433   -1.0266   -2.6058 H   0  0  0  0  0  0  0  0  0  0  0  0
    5.9785    0.3258   -2.5250 H   0  0  0  0  0  0  0  0  0  0  0  0
    9.7492   -1.1387   -1.3193 H   0  0  0  0  0  0  0  0  0  0  0  0
    8.7980   -2.6100   -1.6490 H   0  0  0  0  0  0  0  0  0  0  0  0
    8.5937   -0.8782    2.2198 H   0  0  0  0  0  0  0  0  0  0  0  0
    9.6408   -0.1199    0.9993 H   0  0  0  0  0  0  0  0  0  0  0  0
   11.1128   -3.1817   -1.1958 H   0  0  0  0  0  0  0  0  0  0  0  0
   10.0179   -3.9208   -0.0200 H   0  0  0  0  0  0  0  0  0  0  0  0
    9.9109   -2.9422    2.2028 H   0  0  0  0  0  0  0  0  0  0  0  0
   10.9325   -1.5376    2.5361 H   0  0  0  0  0  0  0  0  0  0  0  0
    1.7624    2.1841    1.2607 H   0  0  0  0  0  0  0  0  0  0  0  0
   -1.5863    2.4255   -1.6747 H   0  0  0  0  0  0  0  0  0  0  0  0
    0.8302    3.9439    1.5736 H   0  0  0  0  0  0  0  0  0  0  0  0
   -4.6449    4.2512   -0.4512 H   0  0  0  0  0  0  0  0  0  0  0  0
   -3.7873    4.0201   -1.9741 H   0  0  0  0  0  0  0  0  0  0  0  0
   -3.2931    5.0027    1.3196 H   0  0  0  0  0  0  0  0  0  0  0  0
   -1.1121    5.1215    2.4657 H   0  0  0  0  0  0  0  0  0  0  0  0
   -4.1204    1.7291   -1.8584 H   0  0  0  0  0  0  0  0  0  0  0  0
   -8.1568   -0.3094    1.6890 H   0  0  0  0  0  0  0  0  0  0  0  0
   -6.6966   -0.8722    2.5680 H   0  0  0  0  0  0  0  0  0  0  0  0
   -6.8967    0.8025    2.1385 H   0  0  0  0  0  0  0  0  0  0  0  0
   -6.8002   -5.3041   -1.9580 H   0  0  0  0  0  0  0  0  0  0  0  0
   -6.1207   -3.7357   -2.0733 H   0  0  0  0  0  0  0  0  0  0  0  0
  1 22  1  0  0  0  0
  1 26  1  0  0  0  0
  2 24  1  0  0  0  0
  2 25  1  0  0  0  0
  3 27  2  0  0  0  0
  4 35  2  0  0  0  0
  5 13  1  0  0  0  0
  5 14  1  0  0  0  0
  6 16  1  0  0  0  0
  6 20  1  0  0  0  0
  6 21  1  0  0  0  0
  7 23  1  0  0  0  0
  7 26  2  0  0  0  0
  8 26  1  0  0  0  0
  8 27  1  0  0  0  0
  8 56  1  0  0  0  0
  9 32  1  0  0  0  0
  9 35  1  0  0  0  0
  9 63  1  0  0  0  0
 10 12  1  0  0  0  0
 10 37  1  0  0  0  0
 10 39  1  0  0  0  0
 11 12  2  0  0  0  0
 11 36  1  0  0  0  0
 13 39  2  0  0  0  0
 14 40  2  0  0  0  0
 15 40  1  0  0  0  0
 15 67  1  0  0  0  0
 15 68  1  0  0  0  0
 16 17  1  0  0  0  0
 16 18  1  0  0  0  0
 16 41  1  0  0  0  0
 17 19  1  0  0  0  0
 17 42  1  0  0  0  0
 17 43  1  0  0  0  0
 18 22  1  0  0  0  0
 18 44  1  0  0  0  0
 18 45  1  0  0  0  0
 19 23  1  0  0  0  0
 19 46  1  0  0  0  0
 19 47  1  0  0  0  0
 20 24  1  0  0  0  0
 20 48  1  0  0  0  0
 20 49  1  0  0  0  0
 21 25  1  0  0  0  0
 21 50  1  0  0  0  0
 21 51  1  0  0  0  0
 22 23  2  0  0  0  0
 24 52  1  0  0  0  0
 24 53  1  0  0  0  0
 25 54  1  0  0  0  0
 25 55  1  0  0  0  0
 27 28  1  0  0  0  0
 28 29  1  0  0  0  0
 28 30  2  0  0  0  0
 29 31  2  0  0  0  0
 29 57  1  0  0  0  0
 30 33  1  0  0  0  0
 30 58  1  0  0  0  0
 31 32  1  0  0  0  0
 31 34  1  0  0  0  0
 32 59  1  0  0  0  0
 32 60  1  0  0  0  0
 33 34  2  0  0  0  0
 33 62  1  0  0  0  0
 34 61  1  0  0  0  0
 35 36  1  0  0  0  0
 36 37  2  0  0  0  0
 37 38  1  0  0  0  0
 38 64  1  0  0  0  0
 38 65  1  0  0  0  0
 38 66  1  0  0  0  0
 39 40  1  0  0  0  0
M  END
> <PUBCHEM_COMPOUND_CID>
84973072

> <PUBCHEM_CONFORMER_RMSD>
1.2

> <PUBCHEM_CONFORMER_DIVERSEORDER>
9
33
172
154
117
123
85
18
114
71
109
26
19
69
7
31
176
62
207
142
42
23
57
147
79
44
36
180
24
20
193
170
17
14
111
166
5
77
199
148
89
116
45
68
204
164
78
100
134
52
127
196
206
143
200
183
174
25
63
102
95
108
70
153
197
152
126
40
202
138
163
186
48
53
191
82
50
112
178
155
150
104
179
133
47
56
81
105
187
157
80
90
73
38
159
203
149
22
74
119
144
173
94
194
136
37
139
118
158
132
107
198
60
92
27
76
162
65
11
185
55
35
110
129
43
49
41
201
156
160
145
122
151
137
86
106
87
64
165
140
58
184
188
205
121
61
99
29
46
72
84
113
88
75
168
93
2
97
103
96
146
8
141
83
39
192
21
91
115
131
128
167
120
175
195
177
171
67
161
28
124
16
190
98
30
135
13
181
59
12
3
51
169
66
189
15
1
4
125
54
10
32
101
6
34
130
182

> <PUBCHEM_MMFF94_PARTIAL_CHARGES>
47
1 -0.08
10 0.65
11 -0.23
12 -0.42
13 -0.41
14 -0.41
15 -0.88
16 0.27
18 0.18
19 0.18
2 -0.56
20 0.27
21 0.27
22 -0.14
23 0.05
24 0.28
25 0.28
26 0.44
27 0.54
28 0.09
29 -0.15
3 -0.57
30 -0.15
31 -0.14
32 0.44
33 -0.15
34 -0.15
35 0.72
36 0.14
37 -0.33
38 0.18
39 0.21
4 -0.57
40 0.37
5 0.24
56 0.37
57 0.15
58 0.15
6 -0.81
61 0.15
62 0.15
63 0.37
67 0.4
68 0.4
7 -0.57
8 -0.49
9 -0.73

> <PUBCHEM_EFFECTIVE_ROTOR_COUNT>
11

> <PUBCHEM_PHARMACOPHORE_FEATURES>
15
1 15 donor
1 2 acceptor
1 3 acceptor
1 4 acceptor
1 6 cation
1 8 donor
1 9 donor
3 10 13 39 cation
3 14 15 40 cation
5 1 7 22 23 26 rings
5 10 11 12 36 37 rings
5 5 13 14 39 40 rings
6 16 17 18 19 22 23 rings
6 2 6 20 21 24 25 rings
6 28 29 30 31 33 34 rings

> <PUBCHEM_HEAVY_ATOM_COUNT>
40

> <PUBCHEM_ATOM_DEF_STEREO_COUNT>
1

> <PUBCHEM_ATOM_UDEF_STEREO_COUNT>
0

> <PUBCHEM_BOND_DEF_STEREO_COUNT>
0

> <PUBCHEM_BOND_UDEF_STEREO_COUNT>
0

> <PUBCHEM_ISOTOPIC_ATOM_COUNT>
0

> <PUBCHEM_COMPONENT_COUNT>
1

> <PUBCHEM_CACTVS_TAUTO_COUNT>
12

> <PUBCHEM_CONFORMER_ID>
0510961000000009

> <PUBCHEM_MMFF94_ENERGY>
78.78

> <PUBCHEM_FEATURE_SELFOVERLAP>
76.256

> <PUBCHEM_SHAPE_FINGERPRINT>
10100884 174 18335421287837030666
10190206 1 12540694786610495148
10258705 36 18128259987609170798
10280341 67 9799696990956464523
10533779 1 11167953429159811915
11181472 205 10807931562669964276
11578821 258 10014993476264499042
117089 54 18337394950158284851
11828042 74 17749940078310247589
12013929 27 18186803599302079884
12061779 8 11527955525560845237
12522641 68 17248071126332764469
12717326 120 18410567384704732592
14201967 108 18337670953252832259
14344974 204 18411983576475993495
15152005 1 18265894838623446647
15455199 99 18120657091435007187
15461852 350 18115029581450787732
15467298 65 18045493123533940651
15604295 49 8501499215002613198
15803439 3 14273731889455901265
16067689 68 18202294593599440435
17686467 74 18342166723692730128
18608769 82 18271523101037747212
19303781 99 18411691119167531365
19611394 137 18059566976250411480
20609170 45 18197203950197721599
208703 8 18338793529027859225
21057603 11 18265062337403133465
21057603 238 17749940194871171023
21057603 30 11965036742964267463
21362035 10 18190463955786849035
21362267 20 18265330613186233306
21781055 127 13038901171680485296
21867126 195 18342173426922953366
23569943 247 18266748073037853403
23729417 116 18115022988376088548
3525247 18 10662451849930459419
353859 58 18122625231009333919
3711267 37 11959432519348831426
393628 194 9943809980789838899
406291 66 18335422421860896463
437795 150 18334852805991391389
437795 160 18338227173471535568
45377200 153 18339642236209697370
5937810 71 11097848567519404991
6201320 82 8646500651851535767
636775 72 9439395835390961295
9962374 69 17749396915524664596

> <PUBCHEM_SHAPE_MULTIPOLES>
753.74
37.91
6.91
1.65
57.53
0.79
-0.05
59.97
-8.11
-18.18
-0.89
0.53
0.14
0.49

> <PUBCHEM_SHAPE_SELFOVERLAP>
1626.48

> <PUBCHEM_SHAPE_VOLUME>
416.2

> <PUBCHEM_COORDINATE_TYPE>
2
5
10

$$$$
84973073
  -OEChem-05102415103D

 59 63  0     1  0  0  0  0  0999 V2000
   -3.8678    1.5824    0.7377 S   0  0  0  0  0  0  0  0  0  0  0  0
    4.9772   -1.0281   -0.0157 S   0  0  0  0  0  0  0  0  0  0  0  0
   -4.5213   -2.6150   -1.2386 O   0  0  0  0  0  0  0  0  0  0  0  0
    3.1961   -3.3821    0.3839 O   0  0  0  0  0  0  0  0  0  0  0  0
   -7.0354    4.0114   -0.0111 N   0  0  2  0  0  0  0  0  0  0  0  0
   -5.5781    0.1212   -0.5563 N   0  0  0  0  0  0  0  0  0  0  0  0
   -3.4321   -0.8723   -0.0838 N   0  0  0  0  0  0  0  0  0  0  0  0
    1.4884   -2.3093    1.5294 N   0  0  0  0  0  0  0  0  0  0  0  0
    4.0620    1.1635    1.0052 N   0  0  0  0  0  0  0  0  0  0  0  0
    8.4860    2.8056   -0.9483 N   0  0  0  0  0  0  0  0  0  0  0  0
   -8.0605    2.9435   -0.0321 C   0  0  0  0  0  0  0  0  0  0  0  0
   -7.5445    1.6730   -0.7463 C   0  0  0  0  0  0  0  0  0  0  0  0
   -5.8449    3.6152    0.7803 C   0  0  0  0  0  0  0  0  0  0  0  0
   -6.1669    1.3384   -0.2973 C   0  0  0  0  0  0  0  0  0  0  0  0
   -5.3891    2.2506    0.3837 C   0  0  0  0  0  0  0  0  0  0  0  0
   -7.5966    5.2577    0.5087 C   0  0  0  0  0  0  0  0  0  0  0  0
   -4.3608    0.1342   -0.0535 C   0  0  0  0  0  0  0  0  0  0  0  0
   -3.5415   -2.1646   -0.6547 C   0  0  0  0  0  0  0  0  0  0  0  0
   -2.3392   -3.0324   -0.5491 C   0  0  0  0  0  0  0  0  0  0  0  0
   -0.3091   -3.6646    0.5984 C   0  0  0  0  0  0  0  0  0  0  0  0
   -1.4376   -2.8506    0.4996 C   0  0  0  0  0  0  0  0  0  0  0  0
    0.6556   -3.4699    1.7189 C   0  0  0  0  0  0  0  0  0  0  0  0
   -2.1122   -4.0281   -1.4993 C   0  0  0  0  0  0  0  0  0  0  0  0
   -0.0821   -4.6603   -0.3518 C   0  0  0  0  0  0  0  0  0  0  0  0
   -0.9835   -4.8419   -1.4008 C   0  0  0  0  0  0  0  0  0  0  0  0
    2.7074   -2.3645    0.8676 C   0  0  0  0  0  0  0  0  0  0  0  0
    3.4583   -1.0857    0.7787 C   0  0  0  0  0  0  0  0  0  0  0  0
    5.0731    0.6474    0.3424 C   0  0  0  0  0  0  0  0  0  0  0  0
    6.2352    1.3827   -0.0977 C   0  0  0  0  0  0  0  0  0  0  0  0
    3.1370    0.1684    1.2542 C   0  0  0  0  0  0  0  0  0  0  0  0
    6.1840    2.7677   -0.2105 C   0  0  0  0  0  0  0  0  0  0  0  0
    7.4105    0.7084   -0.4098 C   0  0  0  0  0  0  0  0  0  0  0  0
    7.3263    3.4264   -0.6364 C   0  0  0  0  0  0  0  0  0  0  0  0
    8.4979    1.4591   -0.8266 C   0  0  0  0  0  0  0  0  0  0  0  0
    7.3083    4.9128   -0.7689 C   0  0  0  0  0  0  0  0  0  0  0  0
   -8.9568    3.2873   -0.5628 H   0  0  0  0  0  0  0  0  0  0  0  0
   -8.3662    2.6937    0.9931 H   0  0  0  0  0  0  0  0  0  0  0  0
   -7.5289    1.8417   -1.8299 H   0  0  0  0  0  0  0  0  0  0  0  0
   -8.2237    0.8367   -0.5484 H   0  0  0  0  0  0  0  0  0  0  0  0
   -6.0769    3.6110    1.8534 H   0  0  0  0  0  0  0  0  0  0  0  0
   -5.0416    4.3412    0.6074 H   0  0  0  0  0  0  0  0  0  0  0  0
   -8.4308    5.5937   -0.1169 H   0  0  0  0  0  0  0  0  0  0  0  0
   -6.8463    6.0558    0.4868 H   0  0  0  0  0  0  0  0  0  0  0  0
   -7.9583    5.1510    1.5377 H   0  0  0  0  0  0  0  0  0  0  0  0
   -2.5486   -0.6043    0.3390 H   0  0  0  0  0  0  0  0  0  0  0  0
   -1.6038   -2.1069    1.2738 H   0  0  0  0  0  0  0  0  0  0  0  0
    0.1134   -3.3363    2.6623 H   0  0  0  0  0  0  0  0  0  0  0  0
    1.2930   -4.3529    1.8468 H   0  0  0  0  0  0  0  0  0  0  0  0
   -2.7989   -4.1830   -2.3273 H   0  0  0  0  0  0  0  0  0  0  0  0
    0.7937   -5.3006   -0.2889 H   0  0  0  0  0  0  0  0  0  0  0  0
   -0.8056   -5.6160   -2.1416 H   0  0  0  0  0  0  0  0  0  0  0  0
    1.1454   -1.4273    1.8954 H   0  0  0  0  0  0  0  0  0  0  0  0
    2.2383    0.4308    1.7958 H   0  0  0  0  0  0  0  0  0  0  0  0
    5.2823    3.3265    0.0221 H   0  0  0  0  0  0  0  0  0  0  0  0
    7.5461   -0.3636   -0.3264 H   0  0  0  0  0  0  0  0  0  0  0  0
    9.4401    0.9823   -1.0761 H   0  0  0  0  0  0  0  0  0  0  0  0
    6.5494    5.2211   -1.4951 H   0  0  0  0  0  0  0  0  0  0  0  0
    8.2773    5.2890   -1.1132 H   0  0  0  0  0  0  0  0  0  0  0  0
    7.0895    5.3785    0.1973 H   0  0  0  0  0  0  0  0  0  0  0  0
  1 15  1  0  0  0  0
  1 17  1  0  0  0  0
  2 27  1  0  0  0  0
  2 28  1  0  0  0  0
  3 18  2  0  0  0  0
  4 26  2  0  0  0  0
  5 11  1  0  0  0  0
  5 13  1  0  0  0  0
  5 16  1  0  0  0  0
  6 14  1  0  0  0  0
  6 17  2  0  0  0  0
  7 17  1  0  0  0  0
  7 18  1  0  0  0  0
  7 45  1  0  0  0  0
  8 22  1  0  0  0  0
  8 26  1  0  0  0  0
  8 52  1  0  0  0  0
  9 28  2  0  0  0  0
  9 30  1  0  0  0  0
 10 33  2  0  0  0  0
 10 34  1  0  0  0  0
 11 12  1  0  0  0  0
 11 36  1  0  0  0  0
 11 37  1  0  0  0  0
 12 14  1  0  0  0  0
 12 38  1  0  0  0  0
 12 39  1  0  0  0  0
 13 15  1  0  0  0  0
 13 40  1  0  0  0  0
 13 41  1  0  0  0  0
 14 15  2  0  0  0  0
 16 42  1  0  0  0  0
 16 43  1  0  0  0  0
 16 44  1  0  0  0  0
 18 19  1  0  0  0  0
 19 21  1  0  0  0  0
 19 23  2  0  0  0  0
 20 21  2  0  0  0  0
 20 22  1  0  0  0  0
 20 24  1  0  0  0  0
 21 46  1  0  0  0  0
 22 47  1  0  0  0  0
 22 48  1  0  0  0  0
 23 25  1  0  0  0  0
 23 49  1  0  0  0  0
 24 25  2  0  0  0  0
 24 50  1  0  0  0  0
 25 51  1  0  0  0  0
 26 27  1  0  0  0  0
 27 30  2  0  0  0  0
 28 29  1  0  0  0  0
 29 31  2  0  0  0  0
 29 32  1  0  0  0  0
 30 53  1  0  0  0  0
 31 33  1  0  0  0  0
 31 54  1  0  0  0  0
 32 34  2  0  0  0  0
 32 55  1  0  0  0  0
 33 35  1  0  0  0  0
 34 56  1  0  0  0  0
 35 57  1  0  0  0  0
 35 58  1  0  0  0  0
 35 59  1  0  0  0  0
M  END
> <PUBCHEM_COMPOUND_CID>
84973073

> <PUBCHEM_CONFORMER_RMSD>
1.4

> <PUBCHEM_CONFORMER_DIVERSEORDER>
1
148
43
40
82
57
130
92
72
102
7
42
38
85
9
28
20
88
81
17
23
21
70
121
44
34
143
84
133
26
127
63
65
106
89
107
142
125
71
77
138
104
126
61
6
39
76
78
86
110
141
10
67
51
144
103
69
60
30
19
129
33
48
113
8
18
136
59
27
132
99
97
140
53
118
111
73
96
31
55
95
56
146
14
90
139
108
114
94
109
32
87
37
45
116
75
93
35
100
83
2
47
145
11
68
36
137
105
4
80
135
123
25
134
41
46
131
64
29
62
147
117
24
66
13
15
128
52
115
98
119
74
50
79
58
101
54
124
16
120
22
49
122
112
12
91
5
3

> <PUBCHEM_MMFF94_PARTIAL_CHARGES>
45
1 -0.08
10 -0.62
11 0.27
12 0.18
13 0.45
14 0.05
15 -0.14
16 0.27
17 0.44
18 0.54
19 0.09
2 -0.08
20 -0.14
21 -0.15
22 0.44
23 -0.15
24 -0.15
25 -0.15
26 0.71
27 -0.05
28 0.33
29 0.05
3 -0.57
30 0.08
31 -0.15
32 -0.15
33 0.17
34 0.16
35 0.14
4 -0.57
45 0.37
46 0.15
49 0.15
5 -0.81
50 0.15
51 0.15
52 0.37
53 0.15
54 0.15
55 0.15
56 0.15
6 -0.57
7 -0.49
8 -0.73
9 -0.57

> <PUBCHEM_EFFECTIVE_ROTOR_COUNT>
8.8

> <PUBCHEM_PHARMACOPHORE_FEATURES>
12
1 10 acceptor
1 3 acceptor
1 4 acceptor
1 5 cation
1 7 donor
1 8 donor
1 9 acceptor
5 1 6 14 15 17 rings
5 2 9 27 28 30 rings
6 10 29 31 32 33 34 rings
6 19 20 21 23 24 25 rings
6 5 11 12 13 14 15 rings

> <PUBCHEM_HEAVY_ATOM_COUNT>
35

> <PUBCHEM_ATOM_DEF_STEREO_COUNT>
0

> <PUBCHEM_ATOM_UDEF_STEREO_COUNT>
0

> <PUBCHEM_BOND_DEF_STEREO_COUNT>
0

> <PUBCHEM_BOND_UDEF_STEREO_COUNT>
0

> <PUBCHEM_ISOTOPIC_ATOM_COUNT>
0

> <PUBCHEM_COMPONENT_COUNT>
1

> <PUBCHEM_CACTVS_TAUTO_COUNT>
6

> <PUBCHEM_CONFORMER_ID>
0510961100000001

> <PUBCHEM_MMFF94_ENERGY>
80.677

> <PUBCHEM_FEATURE_SELFOVERLAP>
60.968

> <PUBCHEM_SHAPE_FINGERPRINT>
10864689 126 18272083907644330224
10917259 128 18195229222369694440
10917259 69 18410013239782472500
11374522 174 18338524036614876389
11476731 99 18126840732587828352
11505856 67 18339631343999165495
11621639 254 18269833297937642319
11828042 163 18339088082496497724
1200032 147 18114181913255572722
12013929 29 18263365962158961596
12061779 8 18040995181048054368
12124843 1 17988922241199210845
12895837 130 18337391672592264614
13944108 23 17981885246574867299
14026016 13 18412266121421794185
14251764 75 18409164377117259459
14394314 77 18333450949872424701
14664723 55 18412549786114290001
15064981 113 17489314083703239214
15198563 99 17841134856708482439
15406563 185 16629952223620141537
155225 6 18338798901768468897
16067689 134 18335426789922336428
16992727 255 18411140268749015960
17899979 129 18339645520962834450
18339144 43 17197999392905679521
19053607 189 18339912766891787338
19302320 297 18121494652980026219
20691028 202 18411412903954615162
20766409 102 18408887365713947221
21792965 106 17978506770420963656
23523788 1 8573280731814673950
23569943 247 9439103383465000949
393628 194 18408884057529274853
406291 66 9943519713266057861
4366758 26 18338801096286592121
44880568 143 18196098961810298540
5265222 85 18412825815600055177
5718773 13 10231759989533430930
57303763 176 18408322195631958632
5776283 40 18341610472806375825
59520647 147 18409454656572290080
6036956 94 18268714909770559337
6058803 2 18192966340386097698
6673363 416 18050568740049124271

> <PUBCHEM_SHAPE_MULTIPOLES>
686.36
27.59
8.53
1.22
11.81
0.61
-0.09
-51.79
6.02
-5.43
1.29
0.26
0.88
-4.66

> <PUBCHEM_SHAPE_SELFOVERLAP>
1470.408

> <PUBCHEM_SHAPE_VOLUME>
382.9

> <PUBCHEM_COORDINATE_TYPE>
2
5
10

$$$$
84973074
  -OEChem-05102415103D

 68 73  0     1  0  0  0  0  0999 V2000
    2.4403   -0.0813   -0.3775 S   0  0  0  0  0  0  0  0  0  0  0  0
    9.3613    3.6863   -0.8814 O   0  0  0  0  0  0  0  0  0  0  0  0
    1.5910   -4.4885    0.9589 O   0  0  0  0  0  0  0  0  0  0  0  0
   -5.9088   -2.3312   -0.4083 O   0  0  0  0  0  0  0  0  0  0  0  0
   -5.0393    4.8350    0.4971 O   0  0  0  0  0  0  0  0  0  0  0  0
    7.2915    1.9449    0.0042 N   0  0  0  0  0  0  0  0  0  0  0  0
    3.5312   -2.2099    0.6201 N   0  0  0  0  0  0  0  0  0  0  0  0
    1.1777   -2.3284    0.1100 N   0  0  0  0  0  0  0  0  0  0  0  0
   -3.9294   -1.7451   -1.4653 N   0  0  0  0  0  0  0  0  0  0  0  0
   -6.8875    6.0888    0.8540 N   0  0  0  0  0  0  0  0  0  0  0  0
    6.4585    0.7511   -0.1255 C   0  0  1  0  0  0  0  0  0  0  0  0
    6.7268   -0.2145    1.0514 C   0  0  0  0  0  0  0  0  0  0  0  0
    4.9700    1.1646   -0.1954 C   0  0  0  0  0  0  0  0  0  0  0  0
    5.9169   -1.5181    0.9180 C   0  0  0  0  0  0  0  0  0  0  0  0
    8.7093    1.5804    0.1310 C   0  0  0  0  0  0  0  0  0  0  0  0
    7.1027    2.8403   -1.1457 C   0  0  0  0  0  0  0  0  0  0  0  0
    4.1007   -0.0337   -0.0079 C   0  0  0  0  0  0  0  0  0  0  0  0
    4.5097   -1.2436    0.5164 C   0  0  0  0  0  0  0  0  0  0  0  0
    9.5591    2.8420    0.2532 C   0  0  0  0  0  0  0  0  0  0  0  0
    7.9909    4.0720   -0.9944 C   0  0  0  0  0  0  0  0  0  0  0  0
    2.3969   -1.7079    0.1795 C   0  0  0  0  0  0  0  0  0  0  0  0
    0.8306   -3.6492    0.4885 C   0  0  0  0  0  0  0  0  0  0  0  0
   -0.5966   -4.0273    0.3162 C   0  0  0  0  0  0  0  0  0  0  0  0
   -1.3736   -3.3959   -0.6551 C   0  0  0  0  0  0  0  0  0  0  0  0
   -1.1578   -5.0164    1.1239 C   0  0  0  0  0  0  0  0  0  0  0  0
   -2.7118   -3.7537   -0.8186 C   0  0  0  0  0  0  0  0  0  0  0  0
   -3.5440   -3.0775   -1.8555 C   0  0  0  0  0  0  0  0  0  0  0  0
   -2.4960   -5.3741    0.9604 C   0  0  0  0  0  0  0  0  0  0  0  0
   -3.2732   -4.7426   -0.0108 C   0  0  0  0  0  0  0  0  0  0  0  0
   -5.0976   -1.4804   -0.7636 C   0  0  0  0  0  0  0  0  0  0  0  0
   -5.3646   -0.0510   -0.4596 C   0  0  0  0  0  0  0  0  0  0  0  0
   -6.6768    0.3931   -0.2951 C   0  0  0  0  0  0  0  0  0  0  0  0
   -4.3042    0.8475   -0.3416 C   0  0  0  0  0  0  0  0  0  0  0  0
   -5.8679    2.6341    0.1057 C   0  0  0  0  0  0  0  0  0  0  0  0
   -6.9283    1.7356   -0.0125 C   0  0  0  0  0  0  0  0  0  0  0  0
   -4.5559    2.1899   -0.0591 C   0  0  0  0  0  0  0  0  0  0  0  0
   -6.1280    4.0224    0.3978 C   0  0  0  0  0  0  0  0  0  0  0  0
   -7.2472    4.7871    0.6149 C   0  0  0  0  0  0  0  0  0  0  0  0
   -5.5767    6.0551    0.7716 C   0  0  0  0  0  0  0  0  0  0  0  0
    6.7115    0.2165   -1.0540 H   0  0  0  0  0  0  0  0  0  0  0  0
    6.4732    0.2771    2.0004 H   0  0  0  0  0  0  0  0  0  0  0  0
    7.7678   -0.5411    1.1176 H   0  0  0  0  0  0  0  0  0  0  0  0
    4.7323    1.6142   -1.1662 H   0  0  0  0  0  0  0  0  0  0  0  0
    4.7328    1.8951    0.5891 H   0  0  0  0  0  0  0  0  0  0  0  0
    5.9412   -2.0664    1.8662 H   0  0  0  0  0  0  0  0  0  0  0  0
    6.3777   -2.1583    0.1560 H   0  0  0  0  0  0  0  0  0  0  0  0
    8.9203    1.0173    1.0429 H   0  0  0  0  0  0  0  0  0  0  0  0
    9.0397    0.9938   -0.7357 H   0  0  0  0  0  0  0  0  0  0  0  0
    7.3516    2.3227   -2.0811 H   0  0  0  0  0  0  0  0  0  0  0  0
    6.0762    3.2106   -1.2173 H   0  0  0  0  0  0  0  0  0  0  0  0
    9.3278    3.4002    1.1688 H   0  0  0  0  0  0  0  0  0  0  0  0
   10.6205    2.5759    0.2875 H   0  0  0  0  0  0  0  0  0  0  0  0
    7.8977    4.7103   -1.8789 H   0  0  0  0  0  0  0  0  0  0  0  0
    7.7065    4.6720   -0.1212 H   0  0  0  0  0  0  0  0  0  0  0  0
    0.4437   -1.7150   -0.2310 H   0  0  0  0  0  0  0  0  0  0  0  0
   -0.9572   -2.6465   -1.3223 H   0  0  0  0  0  0  0  0  0  0  0  0
   -0.5716   -5.5175    1.8897 H   0  0  0  0  0  0  0  0  0  0  0  0
   -2.9826   -2.9978   -2.7938 H   0  0  0  0  0  0  0  0  0  0  0  0
   -4.4447   -3.6615   -2.0792 H   0  0  0  0  0  0  0  0  0  0  0  0
   -2.9336   -6.1430    1.5904 H   0  0  0  0  0  0  0  0  0  0  0  0
   -4.3149   -5.0301   -0.1253 H   0  0  0  0  0  0  0  0  0  0  0  0
   -3.3279   -0.9895   -1.7749 H   0  0  0  0  0  0  0  0  0  0  0  0
   -7.5165   -0.2906   -0.3881 H   0  0  0  0  0  0  0  0  0  0  0  0
   -3.2672    0.5376   -0.4305 H   0  0  0  0  0  0  0  0  0  0  0  0
   -7.9603    2.0544    0.1097 H   0  0  0  0  0  0  0  0  0  0  0  0
   -3.7047    2.8599    0.0326 H   0  0  0  0  0  0  0  0  0  0  0  0
   -8.2839    4.4838    0.6141 H   0  0  0  0  0  0  0  0  0  0  0  0
   -4.8806    6.8712    0.8944 H   0  0  0  0  0  0  0  0  0  0  0  0
  1 17  1  0  0  0  0
  1 21  1  0  0  0  0
  2 19  1  0  0  0  0
  2 20  1  0  0  0  0
  3 22  2  0  0  0  0
  4 30  2  0  0  0  0
  5 37  1  0  0  0  0
  5 39  1  0  0  0  0
  6 11  1  0  0  0  0
  6 15  1  0  0  0  0
  6 16  1  0  0  0  0
  7 18  1  0  0  0  0
  7 21  2  0  0  0  0
  8 21  1  0  0  0  0
  8 22  1  0  0  0  0
  8 55  1  0  0  0  0
  9 27  1  0  0  0  0
  9 30  1  0  0  0  0
  9 62  1  0  0  0  0
 10 38  1  0  0  0  0
 10 39  2  0  0  0  0
 11 12  1  0  0  0  0
 11 13  1  0  0  0  0
 11 40  1  0  0  0  0
 12 14  1  0  0  0  0
 12 41  1  0  0  0  0
 12 42  1  0  0  0  0
 13 17  1  0  0  0  0
 13 43  1  0  0  0  0
 13 44  1  0  0  0  0
 14 18  1  0  0  0  0
 14 45  1  0  0  0  0
 14 46  1  0  0  0  0
 15 19  1  0  0  0  0
 15 47  1  0  0  0  0
 15 48  1  0  0  0  0
 16 20  1  0  0  0  0
 16 49  1  0  0  0  0
 16 50  1  0  0  0  0
 17 18  2  0  0  0  0
 19 51  1  0  0  0  0
 19 52  1  0  0  0  0
 20 53  1  0  0  0  0
 20 54  1  0  0  0  0
 22 23  1  0  0  0  0
 23 24  1  0  0  0  0
 23 25  2  0  0  0  0
 24 26  2  0  0  0  0
 24 56  1  0  0  0  0
 25 28  1  0  0  0  0
 25 57  1  0  0  0  0
 26 27  1  0  0  0  0
 26 29  1  0  0  0  0
 27 58  1  0  0  0  0
 27 59  1  0  0  0  0
 28 29  2  0  0  0  0
 28 60  1  0  0  0  0
 29 61  1  0  0  0  0
 30 31  1  0  0  0  0
 31 32  2  0  0  0  0
 31 33  1  0  0  0  0
 32 35  1  0  0  0  0
 32 63  1  0  0  0  0
 33 36  2  0  0  0  0
 33 64  1  0  0  0  0
 34 35  2  0  0  0  0
 34 36  1  0  0  0  0
 34 37  1  0  0  0  0
 35 65  1  0  0  0  0
 36 66  1  0  0  0  0
 37 38  2  0  0  0  0
 38 67  1  0  0  0  0
 39 68  1  0  0  0  0
M  END
> <PUBCHEM_COMPOUND_CID>
84973074

> <PUBCHEM_CONFORMER_RMSD>
1.2

> <PUBCHEM_CONFORMER_DIVERSEORDER>
1
92
17
31
82
27
56
72
9
15
32
44
73
84
98
23
49
16
60
79
6
81
99
25
13
38
74
42
30
78
68
29
89
18
40
83
22
93
86
5
65
36
48
28
34
57
62
69
8
95
46
100
75
26
96
37
21
54
58
102
88
14
10
51
85
66
90
64
11
67
76
35
24
41
53
47
50
97
61
101
70
63
45
7
3
77
19
39
20
80
59
55
43
87
33
2
91
52
94
4
71
12

> <PUBCHEM_MMFF94_PARTIAL_CHARGES>
50
1 -0.08
10 -0.57
11 0.27
13 0.18
14 0.18
15 0.27
16 0.27
17 -0.14
18 0.05
19 0.28
2 -0.56
20 0.28
21 0.44
22 0.54
23 0.09
24 -0.15
25 -0.15
26 -0.14
27 0.44
28 -0.15
29 -0.15
3 -0.57
30 0.54
31 0.09
32 -0.15
33 -0.15
34 0.05
35 -0.15
36 -0.15
37 0.09
38 0.08
39 0.33
4 -0.57
5 -0.28
55 0.37
56 0.15
57 0.15
6 -0.81
60 0.15
61 0.15
62 0.37
63 0.15
64 0.15
65 0.15
66 0.15
67 0.15
68 0.15
7 -0.57
8 -0.49
9 -0.73

> <PUBCHEM_EFFECTIVE_ROTOR_COUNT>
11

> <PUBCHEM_PHARMACOPHORE_FEATURES>
12
1 2 acceptor
1 3 acceptor
1 4 acceptor
1 6 cation
1 8 donor
1 9 donor
5 1 7 17 18 21 rings
5 5 10 37 38 39 rings
6 11 12 13 14 17 18 rings
6 2 6 15 16 19 20 rings
6 23 24 25 26 28 29 rings
6 31 32 33 34 35 36 rings

> <PUBCHEM_HEAVY_ATOM_COUNT>
39

> <PUBCHEM_ATOM_DEF_STEREO_COUNT>
1

> <PUBCHEM_ATOM_UDEF_STEREO_COUNT>
0

> <PUBCHEM_BOND_DEF_STEREO_COUNT>
0

> <PUBCHEM_BOND_UDEF_STEREO_COUNT>
0

> <PUBCHEM_ISOTOPIC_ATOM_COUNT>
0

> <PUBCHEM_COMPONENT_COUNT>
1

> <PUBCHEM_CACTVS_TAUTO_COUNT>
6

> <PUBCHEM_CONFORMER_ID>
0510961200000001

> <PUBCHEM_MMFF94_ENERGY>
85.5923

> <PUBCHEM_FEATURE_SELFOVERLAP>
60.968

> <PUBCHEM_SHAPE_FINGERPRINT>
10917259 128 18339909511987214912
10917259 69 18340205168930599062
11181472 205 18187363295046812060
11408170 253 18268436900462970120
11479125 193 18195252105801908097
11505856 67 18270665504039615463
11761917 142 18341600568722210128
11828042 163 18125727786428301070
11828042 53 18411703201744685528
12013929 29 18410570678828733582
12218070 45 18333731333858909813
12975358 362 17842565033736290921
14747282 140 18260821601751728061
15198563 99 17771884281675844183
15400415 2 18339074866249488657
155225 6 18125439701533584993
16067689 134 18409173186549247868
16112460 7 18261105313963254806
16126227 98 18409166636059047615
18339144 43 17750819781801815668
19053607 189 18341319012099052738
19302320 297 17833547895552959443
20737093 133 18410577280574029057
21057603 30 17332001250852197591
21772524 286 18336270144724512320
21792965 106 18340200895458920970
23569914 152 17413605947952922430
397830 11 8213872436396171334
4366758 26 18339643317803146417
437795 171 17974000644677544437
44280116 191 17834976173419733085
44802255 64 17488746825486651350
5265222 85 18413108338717500193
5776283 40 18341608286846817843
5951187 136 17768531587011936543
59520647 147 18196096542985042905
6036956 94 18055356834621765889
6201320 215 18338234989478869706
6673363 416 18196369445449455071

> <PUBCHEM_SHAPE_MULTIPOLES>
758.07
29.58
10.49
1.09
46.01
3.96
-0.18
51.57
-1.22
-18.33
2.64
-0.08
-0.42
-5.89

> <PUBCHEM_SHAPE_SELFOVERLAP>
1646.222

> <PUBCHEM_SHAPE_VOLUME>
415.8

> <PUBCHEM_COORDINATE_TYPE>
2
5
10

$$$$
84973075
  -OEChem-05102415103D

 67 72  0     1  0  0  0  0  0999 V2000
    2.0209   -0.2730   -0.2585 S   0  0  0  0  0  0  0  0  0  0  0  0
   -6.4760    2.7564    1.2356 S   0  0  0  0  0  0  0  0  0  0  0  0
    9.3068    2.7479   -0.6325 O   0  0  0  0  0  0  0  0  0  0  0  0
    0.7194   -4.7017    0.5314 O   0  0  0  0  0  0  0  0  0  0  0  0
   -6.5235   -1.5595   -0.1361 O   0  0  0  0  0  0  0  0  0  0  0  0
    7.0848    1.1389    0.1262 N   0  0  0  0  0  0  0  0  0  0  0  0
    2.8956   -2.6244    0.3914 N   0  0  0  0  0  0  0  0  0  0  0  0
    0.5265   -2.4139   -0.0034 N   0  0  0  0  0  0  0  0  0  0  0  0
   -4.5314   -1.0611   -1.2142 N   0  0  0  0  0  0  0  0  0  0  0  0
   -4.7384    1.5497   -0.2501 N   0  0  0  0  0  0  0  0  0  0  0  0
   -2.7094    6.2317   -0.0348 N   0  0  0  0  0  0  0  0  0  0  0  0
    6.1150    0.0723   -0.1145 C   0  0  1  0  0  0  0  0  0  0  0  0
    6.3148   -1.0682    0.9096 C   0  0  0  0  0  0  0  0  0  0  0  0
    4.6828    0.6519   -0.0498 C   0  0  0  0  0  0  0  0  0  0  0  0
    5.3550   -2.2450    0.6497 C   0  0  0  0  0  0  0  0  0  0  0  0
    8.4549    0.6076    0.1282 C   0  0  0  0  0  0  0  0  0  0  0  0
    6.9570    2.1980   -0.8844 C   0  0  0  0  0  0  0  0  0  0  0  0
    3.6886   -0.4583    0.0249 C   0  0  0  0  0  0  0  0  0  0  0  0
    3.9747   -1.7659    0.3633 C   0  0  0  0  0  0  0  0  0  0  0  0
    9.4488    1.7401    0.3693 C   0  0  0  0  0  0  0  0  0  0  0  0
    7.9869    3.2930   -0.6205 C   0  0  0  0  0  0  0  0  0  0  0  0
    1.8110   -1.9459    0.0818 C   0  0  0  0  0  0  0  0  0  0  0  0
    0.0437   -3.7279    0.2165 C   0  0  0  0  0  0  0  0  0  0  0  0
   -1.4232   -3.9205    0.0726 C   0  0  0  0  0  0  0  0  0  0  0  0
   -2.1582   -3.0811   -0.7647 C   0  0  0  0  0  0  0  0  0  0  0  0
   -2.0649   -4.9405    0.7754 C   0  0  0  0  0  0  0  0  0  0  0  0
   -3.5348   -3.2616   -0.8993 C   0  0  0  0  0  0  0  0  0  0  0  0
   -4.3212   -2.3636   -1.7934 C   0  0  0  0  0  0  0  0  0  0  0  0
   -3.4415   -5.1207    0.6410 C   0  0  0  0  0  0  0  0  0  0  0  0
   -4.1765   -4.2815   -0.1965 C   0  0  0  0  0  0  0  0  0  0  0  0
   -5.6322   -0.7644   -0.4221 C   0  0  0  0  0  0  0  0  0  0  0  0
   -5.7172    0.6320    0.0777 C   0  0  0  0  0  0  0  0  0  0  0  0
   -5.0348    2.7037    0.3054 C   0  0  0  0  0  0  0  0  0  0  0  0
   -6.7400    1.1006    0.8754 C   0  0  0  0  0  0  0  0  0  0  0  0
   -4.2430    3.9053    0.1888 C   0  0  0  0  0  0  0  0  0  0  0  0
   -4.8163    5.1464    0.4431 C   0  0  0  0  0  0  0  0  0  0  0  0
   -2.9038    3.8261   -0.1772 C   0  0  0  0  0  0  0  0  0  0  0  0
   -4.0140    6.2691    0.3185 C   0  0  0  0  0  0  0  0  0  0  0  0
   -2.1871    5.0080   -0.2739 C   0  0  0  0  0  0  0  0  0  0  0  0
    6.2689   -0.3550   -1.1173 H   0  0  0  0  0  0  0  0  0  0  0  0
    6.1561   -0.6860    1.9271 H   0  0  0  0  0  0  0  0  0  0  0  0
    7.3128   -1.5128    0.8767 H   0  0  0  0  0  0  0  0  0  0  0  0
    4.4617    1.2531   -0.9391 H   0  0  0  0  0  0  0  0  0  0  0  0
    4.5618    1.2900    0.8353 H   0  0  0  0  0  0  0  0  0  0  0  0
    5.3520   -2.9168    1.5151 H   0  0  0  0  0  0  0  0  0  0  0  0
    5.7093   -2.8218   -0.2133 H   0  0  0  0  0  0  0  0  0  0  0  0
    8.6340   -0.0943    0.9458 H   0  0  0  0  0  0  0  0  0  0  0  0
    8.6818    0.1122   -0.8244 H   0  0  0  0  0  0  0  0  0  0  0  0
    7.1084    1.7888   -1.8917 H   0  0  0  0  0  0  0  0  0  0  0  0
    5.9782    2.6847   -0.8519 H   0  0  0  0  0  0  0  0  0  0  0  0
    9.3188    2.1901    1.3613 H   0  0  0  0  0  0  0  0  0  0  0  0
   10.4729    1.3573    0.3116 H   0  0  0  0  0  0  0  0  0  0  0  0
    7.9343    4.0523   -1.4075 H   0  0  0  0  0  0  0  0  0  0  0  0
    7.8073    3.7957    0.3377 H   0  0  0  0  0  0  0  0  0  0  0  0
   -0.1441   -1.6831   -0.2213 H   0  0  0  0  0  0  0  0  0  0  0  0
   -1.6828   -2.2999   -1.3511 H   0  0  0  0  0  0  0  0  0  0  0  0
   -1.5120   -5.6020    1.4371 H   0  0  0  0  0  0  0  0  0  0  0  0
   -3.7911   -2.2205   -2.7422 H   0  0  0  0  0  0  0  0  0  0  0  0
   -5.2923   -2.8081   -2.0415 H   0  0  0  0  0  0  0  0  0  0  0  0
   -3.9416   -5.9136    1.1896 H   0  0  0  0  0  0  0  0  0  0  0  0
   -5.2486   -4.4328   -0.2898 H   0  0  0  0  0  0  0  0  0  0  0  0
   -3.8390   -0.3390   -1.3925 H   0  0  0  0  0  0  0  0  0  0  0  0
   -7.6046    0.5751    1.2559 H   0  0  0  0  0  0  0  0  0  0  0  0
   -5.8555    5.3017    0.7085 H   0  0  0  0  0  0  0  0  0  0  0  0
   -2.4135    2.8799   -0.3821 H   0  0  0  0  0  0  0  0  0  0  0  0
   -4.4140    7.2614    0.4996 H   0  0  0  0  0  0  0  0  0  0  0  0
   -1.1391    5.0005   -0.5550 H   0  0  0  0  0  0  0  0  0  0  0  0
  1 18  1  0  0  0  0
  1 22  1  0  0  0  0
  2 33  1  0  0  0  0
  2 34  1  0  0  0  0
  3 20  1  0  0  0  0
  3 21  1  0  0  0  0
  4 23  2  0  0  0  0
  5 31  2  0  0  0  0
  6 12  1  0  0  0  0
  6 16  1  0  0  0  0
  6 17  1  0  0  0  0
  7 19  1  0  0  0  0
  7 22  2  0  0  0  0
  8 22  1  0  0  0  0
  8 23  1  0  0  0  0
  8 55  1  0  0  0  0
  9 28  1  0  0  0  0
  9 31  1  0  0  0  0
  9 62  1  0  0  0  0
 10 32  1  0  0  0  0
 10 33  2  0  0  0  0
 11 38  2  0  0  0  0
 11 39  1  0  0  0  0
 12 13  1  0  0  0  0
 12 14  1  0  0  0  0
 12 40  1  0  0  0  0
 13 15  1  0  0  0  0
 13 41  1  0  0  0  0
 13 42  1  0  0  0  0
 14 18  1  0  0  0  0
 14 43  1  0  0  0  0
 14 44  1  0  0  0  0
 15 19  1  0  0  0  0
 15 45  1  0  0  0  0
 15 46  1  0  0  0  0
 16 20  1  0  0  0  0
 16 47  1  0  0  0  0
 16 48  1  0  0  0  0
 17 21  1  0  0  0  0
 17 49  1  0  0  0  0
 17 50  1  0  0  0  0
 18 19  2  0  0  0  0
 20 51  1  0  0  0  0
 20 52  1  0  0  0  0
 21 53  1  0  0  0  0
 21 54  1  0  0  0  0
 23 24  1  0  0  0  0
 24 25  1  0  0  0  0
 24 26  2  0  0  0  0
 25 27  2  0  0  0  0
 25 56  1  0  0  0  0
 26 29  1  0  0  0  0
 26 57  1  0  0  0  0
 27 28  1  0  0  0  0
 27 30  1  0  0  0  0
 28 58  1  0  0  0  0
 28 59  1  0  0  0  0
 29 30  2  0  0  0  0
 29 60  1  0  0  0  0
 30 61  1  0  0  0  0
 31 32  1  0  0  0  0
 32 34  2  0  0  0  0
 33 35  1  0  0  0  0
 34 63  1  0  0  0  0
 35 36  2  0  0  0  0
 35 37  1  0  0  0  0
 36 38  1  0  0  0  0
 36 64  1  0  0  0  0
 37 39  2  0  0  0  0
 37 65  1  0  0  0  0
 38 66  1  0  0  0  0
 39 67  1  0  0  0  0
M  END
> <PUBCHEM_COMPOUND_CID>
84973075

> <PUBCHEM_CONFORMER_RMSD>
1.2

> <PUBCHEM_CONFORMER_DIVERSEORDER>
1
131
75
32
17
18
151
56
48
200
81
55
16
90
171
67
123
156
69
26
179
51
77
187
98
104
206
158
60
72
191
79
57
140
44
49
89
122
178
47
37
54
64
74
119
129
152
29
68
199
145
91
52
110
125
148
35
33
58
204
196
128
28
146
109
159
188
197
59
111
195
107
149
121
116
63
23
177
231
43
175
211
99
118
101
185
61
117
113
66
223
85
216
70
190
183
71
219
120
220
19
180
105
210
38
198
228
163
157
42
201
217
135
6
184
73
173
164
112
139
153
227
230
11
137
160
194
165
143
87
124
170
166
41
25
114
136
213
155
97
182
162
207
132
76
205
106
82
86
133
127
126
192
202
8
218
4
222
208
102
21
169
108
229
40
50
186
209
144
161
193
134
233
203
14
5
147
226
172
189
24
215
78
130
167
221
95
88
103
31
174
96
65
225
83
176
39
212
30
141
7
46
34
154
214
115
62
13
92
36
232
15
27
22
150
100
224
45
20
168
138
12
53
3
10
94
9
93
142
181
2
80
84

> <PUBCHEM_MMFF94_PARTIAL_CHARGES>
49
1 -0.08
10 -0.57
11 -0.62
12 0.27
14 0.18
15 0.18
16 0.27
17 0.27
18 -0.14
19 0.05
2 -0.08
20 0.28
21 0.28
22 0.44
23 0.54
24 0.09
25 -0.15
26 -0.15
27 -0.14
28 0.44
29 -0.15
3 -0.56
30 -0.15
31 0.72
32 0.14
33 0.33
34 -0.11
35 0.05
36 -0.15
37 -0.15
38 0.16
39 0.16
4 -0.57
5 -0.57
55 0.37
56 0.15
57 0.15
6 -0.81
60 0.15
61 0.15
62 0.37
63 0.15
64 0.15
65 0.15
66 0.15
67 0.15
7 -0.57
8 -0.49
9 -0.73

> <PUBCHEM_EFFECTIVE_ROTOR_COUNT>
11

> <PUBCHEM_PHARMACOPHORE_FEATURES>
14
1 10 acceptor
1 11 acceptor
1 3 acceptor
1 4 acceptor
1 5 acceptor
1 6 cation
1 8 donor
1 9 donor
5 1 7 18 19 22 rings
5 2 10 32 33 34 rings
6 11 35 36 37 38 39 rings
6 12 13 14 15 18 19 rings
6 24 25 26 27 29 30 rings
6 3 6 16 17 20 21 rings

> <PUBCHEM_HEAVY_ATOM_COUNT>
39

> <PUBCHEM_ATOM_DEF_STEREO_COUNT>
1

> <PUBCHEM_ATOM_UDEF_STEREO_COUNT>
0

> <PUBCHEM_BOND_DEF_STEREO_COUNT>
0

> <PUBCHEM_BOND_UDEF_STEREO_COUNT>
0

> <PUBCHEM_ISOTOPIC_ATOM_COUNT>
0

> <PUBCHEM_COMPONENT_COUNT>
1

> <PUBCHEM_CACTVS_TAUTO_COUNT>
6

> <PUBCHEM_CONFORMER_ID>
0510961300000001

> <PUBCHEM_MMFF94_ENERGY>
84.3447

> <PUBCHEM_FEATURE_SELFOVERLAP>
71.119

> <PUBCHEM_SHAPE_FINGERPRINT>
10917259 128 18340190961220346210
10939801 23 18409731729338423057
10951579 204 18338816562858438462
10985338 8 18271233929385352698
11181472 205 18260831545291652470
11204353 107 18050283665747231957
11408170 253 18342182189115257816
11476731 118 18196085779938962552
11973864 220 18117847809825426508
12013929 29 18412261697594929278
12218070 45 18334858290238055740
13347071 3 18341333413251125956
13383665 225 18261407676362594924
14747282 140 18409729531191225293
14790565 3 18122623856328778371
15274700 147 18337972171608263425
15320467 1 18411135823383926873
15400415 2 18123185697553006977
155225 5 18411417293817380091
15538507 32 18411984693183646177
16126227 98 18411140233645030546
16990350 14 18050565145277366571
16992828 155 18413390943439596391
19053607 189 18266729191501497968
20737093 133 18411985729141494785
21772524 286 18409730677673160028
23516275 100 18339082567521762205
3525247 154 18273209820014153160
437795 171 17975693888210029061
44802255 64 17346319361720582999
4487111 67 18268425738116910721
50677037 204 18336538395681638853
5265222 85 18340770334781099521
5776283 40 18342735260516622553
6036956 94 18194113020335455877
6201320 215 18412541029266544698
6475588 51 18339356474212326180

> <PUBCHEM_SHAPE_MULTIPOLES>
762.81
25.98
10.36
0.97
55.67
6.08
-0.12
25.27
0.55
-17.6
0.82
-0.63
-0.3
-3.4

> <PUBCHEM_SHAPE_SELFOVERLAP>
1638.632

> <PUBCHEM_SHAPE_VOLUME>
423

> <PUBCHEM_COORDINATE_TYPE>
2
5
10

$$$$
84973076
  -OEChem-05102415103D

 68 73  0     1  0  0  0  0  0999 V2000
    2.2062   -0.2089   -0.3208 S   0  0  0  0  0  0  0  0  0  0  0  0
    9.3059    3.2199   -0.7509 O   0  0  0  0  0  0  0  0  0  0  0  0
    1.1540   -4.6548    0.7075 O   0  0  0  0  0  0  0  0  0  0  0  0
   -6.2477   -1.9998   -0.2654 O   0  0  0  0  0  0  0  0  0  0  0  0
    7.1685    1.5263    0.0644 N   0  0  0  0  0  0  0  0  0  0  0  0
    3.2055   -2.4614    0.4813 N   0  0  0  0  0  0  0  0  0  0  0  0
    0.8365   -2.4177    0.0353 N   0  0  0  0  0  0  0  0  0  0  0  0
   -4.2673   -1.4453   -1.3376 N   0  0  0  0  0  0  0  0  0  0  0  0
   -6.6228    0.7109    0.5740 N   0  0  0  0  0  0  0  0  0  0  0  0
   -6.5659    2.0301    0.8241 N   0  0  0  0  0  0  0  0  0  0  0  0
   -4.1769    6.4473    0.3170 N   0  0  0  0  0  0  0  0  0  0  0  0
    6.2688    0.3910   -0.1291 C   0  0  1  0  0  0  0  0  0  0  0  0
    6.5150   -0.6741    0.9637 C   0  0  0  0  0  0  0  0  0  0  0  0
    4.8037    0.8858   -0.1227 C   0  0  0  0  0  0  0  0  0  0  0  0
    5.6323   -1.9198    0.7579 C   0  0  0  0  0  0  0  0  0  0  0  0
    8.5674    1.0798    0.1206 C   0  0  0  0  0  0  0  0  0  0  0  0
    6.9986    2.5156   -1.0092 C   0  0  0  0  0  0  0  0  0  0  0  0
    3.8757   -0.2763    0.0009 C   0  0  0  0  0  0  0  0  0  0  0  0
    4.2321   -1.5424    0.4207 C   0  0  0  0  0  0  0  0  0  0  0  0
    9.4873    2.2823    0.3109 C   0  0  0  0  0  0  0  0  0  0  0  0
    7.9560    3.6841   -0.7932 C   0  0  0  0  0  0  0  0  0  0  0  0
    2.0890   -1.8687    0.1142 C   0  0  0  0  0  0  0  0  0  0  0  0
    0.4282   -3.7435    0.3243 C   0  0  0  0  0  0  0  0  0  0  0  0
   -1.0215   -4.0324    0.1676 C   0  0  0  0  0  0  0  0  0  0  0  0
   -1.7879   -3.2888   -0.7300 C   0  0  0  0  0  0  0  0  0  0  0  0
   -1.6156   -5.0467    0.9185 C   0  0  0  0  0  0  0  0  0  0  0  0
   -3.1485   -3.5596   -0.8766 C   0  0  0  0  0  0  0  0  0  0  0  0
   -3.9684   -2.7641   -1.8352 C   0  0  0  0  0  0  0  0  0  0  0  0
   -2.9762   -5.3173    0.7722 C   0  0  0  0  0  0  0  0  0  0  0  0
   -3.7425   -4.5740   -0.1256 C   0  0  0  0  0  0  0  0  0  0  0  0
   -5.3994   -1.1703   -0.5829 C   0  0  0  0  0  0  0  0  0  0  0  0
   -5.5773    0.2450   -0.1680 C   0  0  0  0  0  0  0  0  0  0  0  0
   -4.7814    1.3355   -0.4212 C   0  0  0  0  0  0  0  0  0  0  0  0
   -5.4390    2.4061    0.2138 C   0  0  0  0  0  0  0  0  0  0  0  0
   -5.0099    3.7798    0.2488 C   0  0  0  0  0  0  0  0  0  0  0  0
   -3.6551    4.0893    0.2032 C   0  0  0  0  0  0  0  0  0  0  0  0
   -5.9487    4.8025    0.3285 C   0  0  0  0  0  0  0  0  0  0  0  0
   -3.2937    5.4264    0.2397 C   0  0  0  0  0  0  0  0  0  0  0  0
   -5.4847    6.1078    0.3594 C   0  0  0  0  0  0  0  0  0  0  0  0
    6.4680   -0.0837   -1.1022 H   0  0  0  0  0  0  0  0  0  0  0  0
    6.3134   -0.2438    1.9540 H   0  0  0  0  0  0  0  0  0  0  0  0
    7.5382   -1.0587    0.9739 H   0  0  0  0  0  0  0  0  0  0  0  0
    4.5653    1.4199   -1.0495 H   0  0  0  0  0  0  0  0  0  0  0  0
    4.6272    1.5657    0.7210 H   0  0  0  0  0  0  0  0  0  0  0  0
    5.6516   -2.5393    1.6613 H   0  0  0  0  0  0  0  0  0  0  0  0
    6.0375   -2.5232   -0.0635 H   0  0  0  0  0  0  0  0  0  0  0  0
    8.7713    0.4385    0.9810 H   0  0  0  0  0  0  0  0  0  0  0  0
    8.8425    0.5446   -0.7972 H   0  0  0  0  0  0  0  0  0  0  0  0
    7.1944    2.0584   -1.9878 H   0  0  0  0  0  0  0  0  0  0  0  0
    5.9922    2.9432   -1.0219 H   0  0  0  0  0  0  0  0  0  0  0  0
    9.3107    2.7804    1.2723 H   0  0  0  0  0  0  0  0  0  0  0  0
   10.5332    1.9594    0.2930 H   0  0  0  0  0  0  0  0  0  0  0  0
    7.8745    4.3920   -1.6243 H   0  0  0  0  0  0  0  0  0  0  0  0
    7.7276    4.2297    0.1306 H   0  0  0  0  0  0  0  0  0  0  0  0
    0.1282   -1.7426   -0.2366 H   0  0  0  0  0  0  0  0  0  0  0  0
   -1.3480   -2.5156   -1.3535 H   0  0  0  0  0  0  0  0  0  0  0  0
   -1.0380   -5.6342    1.6273 H   0  0  0  0  0  0  0  0  0  0  0  0
   -3.4289   -2.6450   -2.7821 H   0  0  0  0  0  0  0  0  0  0  0  0
   -4.9064   -3.2801   -2.0727 H   0  0  0  0  0  0  0  0  0  0  0  0
   -3.4392   -6.1058    1.3582 H   0  0  0  0  0  0  0  0  0  0  0  0
   -4.8017   -4.7949   -0.2277 H   0  0  0  0  0  0  0  0  0  0  0  0
   -3.6050   -0.7074   -1.5531 H   0  0  0  0  0  0  0  0  0  0  0  0
   -3.8612    1.3576   -0.9877 H   0  0  0  0  0  0  0  0  0  0  0  0
   -7.4072    0.1871    0.9421 H   0  0  0  0  0  0  0  0  0  0  0  0
   -2.8819    3.3300    0.1506 H   0  0  0  0  0  0  0  0  0  0  0  0
   -7.0173    4.6155    0.3588 H   0  0  0  0  0  0  0  0  0  0  0  0
   -2.2498    5.7209    0.2092 H   0  0  0  0  0  0  0  0  0  0  0  0
   -6.1762    6.9419    0.4191 H   0  0  0  0  0  0  0  0  0  0  0  0
  1 18  1  0  0  0  0
  1 22  1  0  0  0  0
  2 20  1  0  0  0  0
  2 21  1  0  0  0  0
  3 23  2  0  0  0  0
  4 31  2  0  0  0  0
  5 12  1  0  0  0  0
  5 16  1  0  0  0  0
  5 17  1  0  0  0  0
  6 19  1  0  0  0  0
  6 22  2  0  0  0  0
  7 22  1  0  0  0  0
  7 23  1  0  0  0  0
  7 55  1  0  0  0  0
  8 28  1  0  0  0  0
  8 31  1  0  0  0  0
  8 62  1  0  0  0  0
  9 10  1  0  0  0  0
  9 32  1  0  0  0  0
  9 64  1  0  0  0  0
 10 34  2  0  0  0  0
 11 38  2  0  0  0  0
 11 39  1  0  0  0  0
 12 13  1  0  0  0  0
 12 14  1  0  0  0  0
 12 40  1  0  0  0  0
 13 15  1  0  0  0  0
 13 41  1  0  0  0  0
 13 42  1  0  0  0  0
 14 18  1  0  0  0  0
 14 43  1  0  0  0  0
 14 44  1  0  0  0  0
 15 19  1  0  0  0  0
 15 45  1  0  0  0  0
 15 46  1  0  0  0  0
 16 20  1  0  0  0  0
 16 47  1  0  0  0  0
 16 48  1  0  0  0  0
 17 21  1  0  0  0  0
 17 49  1  0  0  0  0
 17 50  1  0  0  0  0
 18 19  2  0  0  0  0
 20 51  1  0  0  0  0
 20 52  1  0  0  0  0
 21 53  1  0  0  0  0
 21 54  1  0  0  0  0
 23 24  1  0  0  0  0
 24 25  1  0  0  0  0
 24 26  2  0  0  0  0
 25 27  2  0  0  0  0
 25 56  1  0  0  0  0
 26 29  1  0  0  0  0
 26 57  1  0  0  0  0
 27 28  1  0  0  0  0
 27 30  1  0  0  0  0
 28 58  1  0  0  0  0
 28 59  1  0  0  0  0
 29 30  2  0  0  0  0
 29 60  1  0  0  0  0
 30 61  1  0  0  0  0
 31 32  1  0  0  0  0
 32 33  2  0  0  0  0
 33 34  1  0  0  0  0
 33 63  1  0  0  0  0
 34 35  1  0  0  0  0
 35 36  2  0  0  0  0
 35 37  1  0  0  0  0
 36 38  1  0  0  0  0
 36 65  1  0  0  0  0
 37 39  2  0  0  0  0
 37 66  1  0  0  0  0
 38 67  1  0  0  0  0
 39 68  1  0  0  0  0
M  END
> <PUBCHEM_COMPOUND_CID>
84973076

> <PUBCHEM_CONFORMER_RMSD>
1.2

> <PUBCHEM_CONFORMER_DIVERSEORDER>
1
114
34
67
106
41
81
138
83
40
116
77
101
105
28
29
23
38
48
30
62
133
6
57
119
139
37
118
82
35
88
92
14
75
104
58
78
136
70
121
93
42
90
74
68
21
135
103
102
117
129
140
33
127
125
80
115
60
44
24
123
59
4
64
71
130
13
109
131
16
10
120
95
111
53
100
73
51
108
128
31
89
99
45
141
84
126
112
132
96
124
26
32
65
52
134
39
20
61
87
110
15
63
27
8
91
107
25
72
50
54
36
113
137
69
9
79
11
122
55
66
46
85
12
17
43
47
7
18
2
56
94
3
97
22
86
76
49
98
19
5

> <PUBCHEM_MMFF94_PARTIAL_CHARGES>
50
1 -0.08
10 -0.71
11 -0.62
12 0.27
14 0.18
15 0.18
16 0.27
17 0.27
18 -0.14
19 0.05
2 -0.56
20 0.28
21 0.28
22 0.44
23 0.54
24 0.09
25 -0.15
26 -0.15
27 -0.14
28 0.44
29 -0.15
3 -0.57
30 -0.15
31 0.71
32 -0.24
33 -0.15
34 0.23
35 0.05
36 -0.15
37 -0.15
38 0.16
39 0.16
4 -0.57
5 -0.81
55 0.37
56 0.15
57 0.15
6 -0.57
60 0.15
61 0.15
62 0.37
63 0.15
64 0.27
65 0.15
66 0.15
67 0.15
68 0.15
7 -0.49
8 -0.73
9 0.3

> <PUBCHEM_EFFECTIVE_ROTOR_COUNT>
11

> <PUBCHEM_PHARMACOPHORE_FEATURES>
15
1 10 acceptor
1 11 acceptor
1 2 acceptor
1 3 acceptor
1 4 acceptor
1 5 cation
1 7 donor
1 8 donor
1 9 donor
5 1 6 18 19 22 rings
5 9 10 32 33 34 rings
6 11 35 36 37 38 39 rings
6 12 13 14 15 18 19 rings
6 2 5 16 17 20 21 rings
6 24 25 26 27 29 30 rings

> <PUBCHEM_HEAVY_ATOM_COUNT>
39

> <PUBCHEM_ATOM_DEF_STEREO_COUNT>
1

> <PUBCHEM_ATOM_UDEF_STEREO_COUNT>
0

> <PUBCHEM_BOND_DEF_STEREO_COUNT>
0

> <PUBCHEM_BOND_UDEF_STEREO_COUNT>
0

> <PUBCHEM_ISOTOPIC_ATOM_COUNT>
0

> <PUBCHEM_COMPONENT_COUNT>
1

> <PUBCHEM_CACTVS_TAUTO_COUNT>
27

> <PUBCHEM_CONFORMER_ID>
0510961400000001

> <PUBCHEM_MMFF94_ENERGY>
82.7086

> <PUBCHEM_FEATURE_SELFOVERLAP>
76.195

> <PUBCHEM_SHAPE_FINGERPRINT>
10917259 128 18340190974089430312
10917259 69 18267304228052156006
10939801 23 18410294683724046125
10951579 204 18338536208815366606
10985338 8 18271796892197295578
11181472 205 18188209914694520452
11408170 253 18341057414442354328
11476731 118 18052250984455298248
11479125 193 18123475969529160113
11761917 142 18341037597489222032
11828042 53 18411702085169239580
12013929 29 18411416186085466302
12218070 45 18334013882424496045
12975358 362 17769943377258799713
13347071 3 18269274724001870740
15274700 147 18265633115578772953
15400415 2 18195805163844967233
155225 5 18411417315371493763
16990350 14 18194679259579801867
19053607 189 18267010683536589632
19304152 47 18337119977983892867
20737093 133 18411141312817095473
21057603 30 17188448995423176375
21772524 286 18409168848553176748
3525247 154 18273210936658125385
437795 171 17974565789248425573
44280116 191 17548150934705721900
44802255 64 17346038994829591014
5265222 85 18340488877010566809
5776283 40 18342172323416461073
59520647 147 18124320402338277865
6036956 94 18267015060825662549
6201320 215 18411134779485282706
6475588 51 18339637961984319932

> <PUBCHEM_SHAPE_MULTIPOLES>
753.98
27.05
10.87
0.98
52.95
6.43
-0.2
35.75
-1.02
-20.13
1.66
-0.21
-0.48
-4.14

> <PUBCHEM_SHAPE_SELFOVERLAP>
1634.983

> <PUBCHEM_SHAPE_VOLUME>
414.3

> <PUBCHEM_COORDINATE_TYPE>
2
5
10

$$$$
84973077
  -OEChem-05102415103D

 70 75  0     1  0  0  0  0  0999 V2000
    2.3587   -0.2448   -0.3178 S   0  0  0  0  0  0  0  0  0  0  0  0
   -4.2701    1.3643   -0.6488 S   0  0  0  0  0  0  0  0  0  0  0  0
    9.4478    3.2128   -0.6879 O   0  0  0  0  0  0  0  0  0  0  0  0
    1.3176   -4.7012    0.6759 O   0  0  0  0  0  0  0  0  0  0  0  0
   -6.0887   -2.0672   -0.3188 O   0  0  0  0  0  0  0  0  0  0  0  0
    7.3125    1.5060    0.1049 N   0  0  0  0  0  0  0  0  0  0  0  0
    3.3621   -2.4989    0.4749 N   0  0  0  0  0  0  0  0  0  0  0  0
    0.9954   -2.4610    0.0166 N   0  0  0  0  0  0  0  0  0  0  0  0
   -4.1047   -1.4984   -1.3769 N   0  0  0  0  0  0  0  0  0  0  0  0
   -6.3022    2.1261    0.7557 N   0  0  0  0  0  0  0  0  0  0  0  0
   -3.8228    6.5564    0.1982 N   0  0  0  0  0  0  0  0  0  0  0  0
    6.4180    0.3687   -0.1007 C   0  0  1  0  0  0  0  0  0  0  0  0
    6.6624   -0.7026    0.9865 C   0  0  0  0  0  0  0  0  0  0  0  0
    4.9510    0.8581   -0.0988 C   0  0  0  0  0  0  0  0  0  0  0  0
    5.7854   -1.9502    0.7678 C   0  0  0  0  0  0  0  0  0  0  0  0
    7.1445    2.5016   -0.9630 C   0  0  0  0  0  0  0  0  0  0  0  0
    8.7127    1.0643    0.1657 C   0  0  0  0  0  0  0  0  0  0  0  0
    4.0268   -0.3083    0.0123 C   0  0  0  0  0  0  0  0  0  0  0  0
    4.3856   -1.5757    0.4257 C   0  0  0  0  0  0  0  0  0  0  0  0
    8.0965    3.6722   -0.7343 C   0  0  0  0  0  0  0  0  0  0  0  0
    9.6271    2.2690    0.3687 C   0  0  0  0  0  0  0  0  0  0  0  0
    2.2454   -1.9079    0.1057 C   0  0  0  0  0  0  0  0  0  0  0  0
    0.5905   -3.7901    0.2948 C   0  0  0  0  0  0  0  0  0  0  0  0
   -0.8573   -4.0833    0.1285 C   0  0  0  0  0  0  0  0  0  0  0  0
   -1.6217   -3.3367   -0.7682 C   0  0  0  0  0  0  0  0  0  0  0  0
   -1.4516   -5.1047    0.8697 C   0  0  0  0  0  0  0  0  0  0  0  0
   -2.9804   -3.6115   -0.9238 C   0  0  0  0  0  0  0  0  0  0  0  0
   -3.7983   -2.8129   -1.8815 C   0  0  0  0  0  0  0  0  0  0  0  0
   -2.8103   -5.3794    0.7144 C   0  0  0  0  0  0  0  0  0  0  0  0
   -3.5747   -4.6330   -0.1826 C   0  0  0  0  0  0  0  0  0  0  0  0
   -5.2418   -1.2325   -0.6264 C   0  0  0  0  0  0  0  0  0  0  0  0
   -5.4271    0.1794   -0.2032 C   0  0  0  0  0  0  0  0  0  0  0  0
   -6.4307    0.7682    0.5370 C   0  0  0  0  0  0  0  0  0  0  0  0
   -5.1999    2.5472    0.1763 C   0  0  0  0  0  0  0  0  0  0  0  0
   -4.7307    3.9127    0.1845 C   0  0  0  0  0  0  0  0  0  0  0  0
   -7.6106    0.0829    1.1041 C   0  0  0  0  0  0  0  0  0  0  0  0
   -3.3943    4.1931   -0.0780 C   0  0  0  0  0  0  0  0  0  0  0  0
   -5.6137    4.9526    0.4537 C   0  0  0  0  0  0  0  0  0  0  0  0
   -2.9943    5.5195   -0.0593 C   0  0  0  0  0  0  0  0  0  0  0  0
   -5.1143    6.2452    0.4485 C   0  0  0  0  0  0  0  0  0  0  0  0
    6.6241   -0.0988   -1.0758 H   0  0  0  0  0  0  0  0  0  0  0  0
    6.4540   -0.2795    1.9785 H   0  0  0  0  0  0  0  0  0  0  0  0
    7.6869   -1.0835    0.9995 H   0  0  0  0  0  0  0  0  0  0  0  0
    4.7156    1.3974   -1.0234 H   0  0  0  0  0  0  0  0  0  0  0  0
    4.7675    1.5318    0.7484 H   0  0  0  0  0  0  0  0  0  0  0  0
    5.8023   -2.5755    1.6673 H   0  0  0  0  0  0  0  0  0  0  0  0
    6.1972   -2.5467   -0.0554 H   0  0  0  0  0  0  0  0  0  0  0  0
    7.3471    2.0516   -1.9435 H   0  0  0  0  0  0  0  0  0  0  0  0
    6.1366    2.9257   -0.9782 H   0  0  0  0  0  0  0  0  0  0  0  0
    8.9144    0.4182    1.0229 H   0  0  0  0  0  0  0  0  0  0  0  0
    8.9946    0.5362   -0.7541 H   0  0  0  0  0  0  0  0  0  0  0  0
    8.0167    4.3852   -1.5613 H   0  0  0  0  0  0  0  0  0  0  0  0
    7.8612    4.2110    0.1918 H   0  0  0  0  0  0  0  0  0  0  0  0
    9.4436    2.7600    1.3324 H   0  0  0  0  0  0  0  0  0  0  0  0
   10.6743    1.9500    0.3542 H   0  0  0  0  0  0  0  0  0  0  0  0
    0.2861   -1.7868   -0.2546 H   0  0  0  0  0  0  0  0  0  0  0  0
   -1.1815   -2.5577   -1.3842 H   0  0  0  0  0  0  0  0  0  0  0  0
   -0.8755   -5.6947    1.5777 H   0  0  0  0  0  0  0  0  0  0  0  0
   -3.2540   -2.6850   -2.8245 H   0  0  0  0  0  0  0  0  0  0  0  0
   -4.7330   -3.3307   -2.1275 H   0  0  0  0  0  0  0  0  0  0  0  0
   -3.2736   -6.1734    1.2928 H   0  0  0  0  0  0  0  0  0  0  0  0
   -4.6325   -4.8571   -0.2917 H   0  0  0  0  0  0  0  0  0  0  0  0
   -3.4534   -0.7450   -1.5783 H   0  0  0  0  0  0  0  0  0  0  0  0
   -8.2465    0.7848    1.6535 H   0  0  0  0  0  0  0  0  0  0  0  0
   -8.2181   -0.3650    0.3113 H   0  0  0  0  0  0  0  0  0  0  0  0
   -7.3055   -0.7041    1.8009 H   0  0  0  0  0  0  0  0  0  0  0  0
   -2.6349    3.4446   -0.2723 H   0  0  0  0  0  0  0  0  0  0  0  0
   -6.6651    4.7819    0.6609 H   0  0  0  0  0  0  0  0  0  0  0  0
   -1.9615    5.7916   -0.2513 H   0  0  0  0  0  0  0  0  0  0  0  0
   -5.7620    7.0917    0.6517 H   0  0  0  0  0  0  0  0  0  0  0  0
  1 18  1  0  0  0  0
  1 22  1  0  0  0  0
  2 32  1  0  0  0  0
  2 34  1  0  0  0  0
  3 20  1  0  0  0  0
  3 21  1  0  0  0  0
  4 23  2  0  0  0  0
  5 31  2  0  0  0  0
  6 12  1  0  0  0  0
  6 16  1  0  0  0  0
  6 17  1  0  0  0  0
  7 19  1  0  0  0  0
  7 22  2  0  0  0  0
  8 22  1  0  0  0  0
  8 23  1  0  0  0  0
  8 56  1  0  0  0  0
  9 28  1  0  0  0  0
  9 31  1  0  0  0  0
  9 63  1  0  0  0  0
 10 33  1  0  0  0  0
 10 34  2  0  0  0  0
 11 39  2  0  0  0  0
 11 40  1  0  0  0  0
 12 13  1  0  0  0  0
 12 14  1  0  0  0  0
 12 41  1  0  0  0  0
 13 15  1  0  0  0  0
 13 42  1  0  0  0  0
 13 43  1  0  0  0  0
 14 18  1  0  0  0  0
 14 44  1  0  0  0  0
 14 45  1  0  0  0  0
 15 19  1  0  0  0  0
 15 46  1  0  0  0  0
 15 47  1  0  0  0  0
 16 20  1  0  0  0  0
 16 48  1  0  0  0  0
 16 49  1  0  0  0  0
 17 21  1  0  0  0  0
 17 50  1  0  0  0  0
 17 51  1  0  0  0  0
 18 19  2  0  0  0  0
 20 52  1  0  0  0  0
 20 53  1  0  0  0  0
 21 54  1  0  0  0  0
 21 55  1  0  0  0  0
 23 24  1  0  0  0  0
 24 25  1  0  0  0  0
 24 26  2  0  0  0  0
 25 27  2  0  0  0  0
 25 57  1  0  0  0  0
 26 29  1  0  0  0  0
 26 58  1  0  0  0  0
 27 28  1  0  0  0  0
 27 30  1  0  0  0  0
 28 59  1  0  0  0  0
 28 60  1  0  0  0  0
 29 30  2  0  0  0  0
 29 61  1  0  0  0  0
 30 62  1  0  0  0  0
 31 32  1  0  0  0  0
 32 33  2  0  0  0  0
 33 36  1  0  0  0  0
 34 35  1  0  0  0  0
 35 37  2  0  0  0  0
 35 38  1  0  0  0  0
 36 64  1  0  0  0  0
 36 65  1  0  0  0  0
 36 66  1  0  0  0  0
 37 39  1  0  0  0  0
 37 67  1  0  0  0  0
 38 40  2  0  0  0  0
 38 68  1  0  0  0  0
 39 69  1  0  0  0  0
 40 70  1  0  0  0  0
M  END
> <PUBCHEM_COMPOUND_CID>
84973077

> <PUBCHEM_CONFORMER_RMSD>
1.2

> <PUBCHEM_CONFORMER_DIVERSEORDER>
1
201
34
47
186
54
26
79
236
193
202
145
58
27
91
218
170
199
120
21
62
230
99
82
45
121
210
175
77
20
174
151
55
165
75
73
166
128
233
112
24
105
57
71
61
157
59
169
53
33
68
122
211
87
138
162
83
200
46
127
222
124
84
149
64
32
92
150
173
17
80
97
70
159
125
56
153
143
94
51
28
208
154
235
152
223
168
6
163
189
115
229
9
224
225
219
220
60
178
216
234
176
40
164
108
65
104
114
144
136
74
111
41
98
139
36
37
161
231
227
89
76
195
15
129
148
86
131
141
18
213
181
190
7
172
52
113
196
101
8
130
171
155
146
43
191
192
212
194
22
107
156
81
160
205
134
118
209
93
188
142
49
23
38
69
197
183
103
78
95
30
85
167
44
117
66
116
217
39
177
198
50
72
214
132
126
140
10
232
228
67
147
226
14
102
135
123
19
96
100
207
158
16
133
11
106
3
221
215
63
137
204
179
119
35
25
203
184
4
48
31
13
187
180
182
185
206
29
110
5
88
109
90
12
42
2

> <PUBCHEM_MMFF94_PARTIAL_CHARGES>
49
1 -0.08
10 -0.57
11 -0.62
12 0.27
14 0.18
15 0.18
16 0.27
17 0.27
18 -0.14
19 0.05
2 -0.08
20 0.28
21 0.28
22 0.44
23 0.54
24 0.09
25 -0.15
26 -0.15
27 -0.14
28 0.44
29 -0.15
3 -0.56
30 -0.15
31 0.71
32 -0.05
33 0.05
34 0.33
35 0.05
36 0.18
37 -0.15
38 -0.15
39 0.16
4 -0.57
40 0.16
5 -0.57
56 0.37
57 0.15
58 0.15
6 -0.81
61 0.15
62 0.15
63 0.37
67 0.15
68 0.15
69 0.15
7 -0.57
70 0.15
8 -0.49
9 -0.73

> <PUBCHEM_EFFECTIVE_ROTOR_COUNT>
11

> <PUBCHEM_PHARMACOPHORE_FEATURES>
14
1 10 acceptor
1 11 acceptor
1 3 acceptor
1 4 acceptor
1 5 acceptor
1 6 cation
1 8 donor
1 9 donor
5 1 7 18 19 22 rings
5 2 10 32 33 34 rings
6 11 35 37 38 39 40 rings
6 12 13 14 15 18 19 rings
6 24 25 26 27 29 30 rings
6 3 6 16 17 20 21 rings

> <PUBCHEM_HEAVY_ATOM_COUNT>
40

> <PUBCHEM_ATOM_DEF_STEREO_COUNT>
1

> <PUBCHEM_ATOM_UDEF_STEREO_COUNT>
0

> <PUBCHEM_BOND_DEF_STEREO_COUNT>
0

> <PUBCHEM_BOND_UDEF_STEREO_COUNT>
0

> <PUBCHEM_ISOTOPIC_ATOM_COUNT>
0

> <PUBCHEM_COMPONENT_COUNT>
1

> <PUBCHEM_CACTVS_TAUTO_COUNT>
6

> <PUBCHEM_CONFORMER_ID>
0510961500000001

> <PUBCHEM_MMFF94_ENERGY>
88.2709

> <PUBCHEM_FEATURE_SELFOVERLAP>
71.119

> <PUBCHEM_SHAPE_FINGERPRINT>
10917259 128 18340190974142177808
10939801 23 18409731746481290981
10951579 204 18338535109377604854
11181472 205 18188490290170198278
11408170 253 18341337785717945512
11479125 193 18051417271616110769
11761917 142 18341037597647510024
11828042 53 18411702085248386868
12013929 29 18411697661125525950
12218070 45 18334295353195936164
13347071 3 18268993253399203220
14747282 140 18410011014668147797
15274700 147 18265633115573452713
15400415 2 18195523688715288705
155225 5 18411416215728003623
16126227 98 18410294730720662566
16990350 14 18122622756426643827
19053607 189 18267010666203661704
19304152 47 18337400349111784403
20737093 133 18410858751108066249
21133410 52 18057036034297573311
21772524 286 18409449219813015084
3525247 154 18272646891662116816
437795 171 17975129843018926381
44280116 191 17548431306034073564
44802255 64 17345757524290356870
5265222 85 18412826854992475985
5776283 40 18342172323316201819
59520647 147 18124601877125090961
6036956 94 18266733581506518397
6201320 215 18411133675826341706
6475588 51 18339355387548690052

> <PUBCHEM_SHAPE_MULTIPOLES>
783.39
27.57
10.84
1.01
56.86
6.49
-0.19
33.57
0.95
-17.48
1.11
-0.49
-0.49
-3.72

> <PUBCHEM_SHAPE_SELFOVERLAP>
1680.692

> <PUBCHEM_SHAPE_VOLUME>
435.2

> <PUBCHEM_COORDINATE_TYPE>
2
5
10

$$$$
84973078
  -OEChem-05102415103D

 69 74  0     1  0  0  0  0  0999 V2000
    1.5092   -0.3651    0.3301 S   0  0  0  0  0  0  0  0  0  0  0  0
    9.0268    1.9839   -0.2326 O   0  0  0  0  0  0  0  0  0  0  0  0
   -0.3078   -4.6035   -0.4853 O   0  0  0  0  0  0  0  0  0  0  0  0
   -6.5721   -0.0432   -0.3098 O   0  0  0  0  0  0  0  0  0  0  0  0
    6.7273    0.3740    0.2391 N   0  0  0  0  0  0  0  0  0  0  0  0
    2.1092   -2.8285   -0.2066 N   0  0  0  0  0  0  0  0  0  0  0  0
   -0.2338   -2.2965   -0.0060 N   0  0  0  0  0  0  0  0  0  0  0  0
   -4.8214   -0.2652    1.1953 N   0  0  0  0  0  0  0  0  0  0  0  0
    0.1614    3.6879   -0.0070 N   0  0  0  0  0  0  0  0  0  0  0  0
   -0.0768    4.9770    0.2892 N   0  0  0  0  0  0  0  0  0  0  0  0
    5.5840   -0.4162   -0.2126 C   0  0  1  0  0  0  0  0  0  0  0  0
    5.7613   -1.8939    0.2052 C   0  0  0  0  0  0  0  0  0  0  0  0
    4.2804    0.1858    0.3615 C   0  0  0  0  0  0  0  0  0  0  0  0
    4.6083   -2.7764   -0.3101 C   0  0  0  0  0  0  0  0  0  0  0  0
    7.9873   -0.2080   -0.2439 C   0  0  0  0  0  0  0  0  0  0  0  0
    6.6103    1.7672   -0.2137 C   0  0  0  0  0  0  0  0  0  0  0  0
    3.1537   -0.7754    0.1790 C   0  0  0  0  0  0  0  0  0  0  0  0
    3.2882   -2.1207   -0.1004 C   0  0  0  0  0  0  0  0  0  0  0  0
    9.1642    0.6399    0.2301 C   0  0  0  0  0  0  0  0  0  0  0  0
    7.8200    2.5688    0.2584 C   0  0  0  0  0  0  0  0  0  0  0  0
    1.1045   -2.0046    0.0039 C   0  0  0  0  0  0  0  0  0  0  0  0
   -0.8696   -3.5408   -0.2419 C   0  0  0  0  0  0  0  0  0  0  0  0
   -2.3536   -3.5458   -0.1576 C   0  0  0  0  0  0  0  0  0  0  0  0
   -3.0098   -2.6136    0.6463 C   0  0  0  0  0  0  0  0  0  0  0  0
   -3.0901   -4.4831   -0.8821 C   0  0  0  0  0  0  0  0  0  0  0  0
   -4.4025   -2.6186    0.7258 C   0  0  0  0  0  0  0  0  0  0  0  0
   -5.1043   -1.6229    1.5860 C   0  0  0  0  0  0  0  0  0  0  0  0
   -4.4827   -4.4884   -0.8025 C   0  0  0  0  0  0  0  0  0  0  0  0
   -5.1389   -3.5560    0.0013 C   0  0  0  0  0  0  0  0  0  0  0  0
   -5.5913    0.4207    0.2659 C   0  0  0  0  0  0  0  0  0  0  0  0
   -5.1525    1.8047   -0.0486 C   0  0  0  0  0  0  0  0  0  0  0  0
   -3.3992    3.4596   -0.2059 C   0  0  0  0  0  0  0  0  0  0  0  0
   -3.8108    2.1600    0.0900 C   0  0  0  0  0  0  0  0  0  0  0  0
   -6.0827    2.7490   -0.4834 C   0  0  0  0  0  0  0  0  0  0  0  0
   -2.0178    3.8256   -0.0631 C   0  0  0  0  0  0  0  0  0  0  0  0
   -4.3294    4.4038   -0.6408 C   0  0  0  0  0  0  0  0  0  0  0  0
   -5.6711    4.0484   -0.7797 C   0  0  0  0  0  0  0  0  0  0  0  0
   -0.9679    2.9552   -0.2268 C   0  0  0  0  0  0  0  0  0  0  0  0
   -1.4097    5.0551    0.2534 C   0  0  0  0  0  0  0  0  0  0  0  0
    5.5209   -0.3902   -1.3114 H   0  0  0  0  0  0  0  0  0  0  0  0
    5.8151   -1.9666    1.2999 H   0  0  0  0  0  0  0  0  0  0  0  0
    6.6654   -2.3554   -0.2004 H   0  0  0  0  0  0  0  0  0  0  0  0
    4.0214    1.1209   -0.1483 H   0  0  0  0  0  0  0  0  0  0  0  0
    4.3896    0.3976    1.4332 H   0  0  0  0  0  0  0  0  0  0  0  0
    4.6339   -3.7487    0.1943 H   0  0  0  0  0  0  0  0  0  0  0  0
    4.7395   -2.9591   -1.3836 H   0  0  0  0  0  0  0  0  0  0  0  0
    8.1793   -1.2006    0.1696 H   0  0  0  0  0  0  0  0  0  0  0  0
    7.9928   -0.2700   -1.3395 H   0  0  0  0  0  0  0  0  0  0  0  0
    5.7312    2.2654    0.2045 H   0  0  0  0  0  0  0  0  0  0  0  0
    6.5468    1.8116   -1.3087 H   0  0  0  0  0  0  0  0  0  0  0  0
    9.2524    0.6371    1.3235 H   0  0  0  0  0  0  0  0  0  0  0  0
   10.0993    0.2427   -0.1780 H   0  0  0  0  0  0  0  0  0  0  0  0
    7.7649    3.5910   -0.1297 H   0  0  0  0  0  0  0  0  0  0  0  0
    7.8626    2.6315    1.3527 H   0  0  0  0  0  0  0  0  0  0  0  0
   -0.8169   -1.4799    0.1516 H   0  0  0  0  0  0  0  0  0  0  0  0
   -2.4604   -1.8972    1.2507 H   0  0  0  0  0  0  0  0  0  0  0  0
   -2.5983   -5.2143   -1.5181 H   0  0  0  0  0  0  0  0  0  0  0  0
   -6.1897   -1.7758    1.5688 H   0  0  0  0  0  0  0  0  0  0  0  0
   -4.7798   -1.7430    2.6261 H   0  0  0  0  0  0  0  0  0  0  0  0
   -5.0563   -5.2173   -1.3675 H   0  0  0  0  0  0  0  0  0  0  0  0
   -6.2244   -3.5720    0.0520 H   0  0  0  0  0  0  0  0  0  0  0  0
   -4.0530    0.1942    1.6720 H   0  0  0  0  0  0  0  0  0  0  0  0
   -3.0776    1.4244    0.4081 H   0  0  0  0  0  0  0  0  0  0  0  0
   -7.1330    2.4922   -0.5937 H   0  0  0  0  0  0  0  0  0  0  0  0
   -4.0339    5.4216   -0.8834 H   0  0  0  0  0  0  0  0  0  0  0  0
   -6.3953    4.7834   -1.1187 H   0  0  0  0  0  0  0  0  0  0  0  0
   -0.9075    1.9068   -0.4835 H   0  0  0  0  0  0  0  0  0  0  0  0
   -1.8749    6.0081    0.4634 H   0  0  0  0  0  0  0  0  0  0  0  0
    1.1230    3.3738   -0.0445 H   0  0  0  0  0  0  0  0  0  0  0  0
  1 17  1  0  0  0  0
  1 21  1  0  0  0  0
  2 19  1  0  0  0  0
  2 20  1  0  0  0  0
  3 22  2  0  0  0  0
  4 30  2  0  0  0  0
  5 11  1  0  0  0  0
  5 15  1  0  0  0  0
  5 16  1  0  0  0  0
  6 18  1  0  0  0  0
  6 21  2  0  0  0  0
  7 21  1  0  0  0  0
  7 22  1  0  0  0  0
  7 55  1  0  0  0  0
  8 27  1  0  0  0  0
  8 30  1  0  0  0  0
  8 62  1  0  0  0  0
  9 10  1  0  0  0  0
  9 38  1  0  0  0  0
  9 69  1  0  0  0  0
 10 39  2  0  0  0  0
 11 12  1  0  0  0  0
 11 13  1  0  0  0  0
 11 40  1  0  0  0  0
 12 14  1  0  0  0  0
 12 41  1  0  0  0  0
 12 42  1  0  0  0  0
 13 17  1  0  0  0  0
 13 43  1  0  0  0  0
 13 44  1  0  0  0  0
 14 18  1  0  0  0  0
 14 45  1  0  0  0  0
 14 46  1  0  0  0  0
 15 19  1  0  0  0  0
 15 47  1  0  0  0  0
 15 48  1  0  0  0  0
 16 20  1  0  0  0  0
 16 49  1  0  0  0  0
 16 50  1  0  0  0  0
 17 18  2  0  0  0  0
 19 51  1  0  0  0  0
 19 52  1  0  0  0  0
 20 53  1  0  0  0  0
 20 54  1  0  0  0  0
 22 23  1  0  0  0  0
 23 24  1  0  0  0  0
 23 25  2  0  0  0  0
 24 26  2  0  0  0  0
 24 56  1  0  0  0  0
 25 28  1  0  0  0  0
 25 57  1  0  0  0  0
 26 27  1  0  0  0  0
 26 29  1  0  0  0  0
 27 58  1  0  0  0  0
 27 59  1  0  0  0  0
 28 29  2  0  0  0  0
 28 60  1  0  0  0  0
 29 61  1  0  0  0  0
 30 31  1  0  0  0  0
 31 33  1  0  0  0  0
 31 34  2  0  0  0  0
 32 33  2  0  0  0  0
 32 35  1  0  0  0  0
 32 36  1  0  0  0  0
 33 63  1  0  0  0  0
 34 37  1  0  0  0  0
 34 64  1  0  0  0  0
 35 38  2  0  0  0  0
 35 39  1  0  0  0  0
 36 37  2  0  0  0  0
 36 65  1  0  0  0  0
 37 66  1  0  0  0  0
 38 67  1  0  0  0  0
 39 68  1  0  0  0  0
M  END
> <PUBCHEM_COMPOUND_CID>
84973078

> <PUBCHEM_CONFORMER_RMSD>
1.2

> <PUBCHEM_CONFORMER_DIVERSEORDER>
1
16
111
170
123
91
102
117
33
46
84
74
156
51
152
278
27
154
184
96
36
62
136
29
124
97
151
140
149
101
281
72
210
114
106
250
37
185
191
208
75
289
103
55
238
192
146
68
50
215
115
47
163
236
94
271
58
240
60
139
202
258
92
76
180
218
95
130
77
56
120
122
245
222
88
198
112
231
98
148
234
243
82
80
269
209
213
233
70
44
126
86
64
141
90
157
100
279
78
83
127
203
196
220
183
105
227
162
67
221
81
45
253
121
85
87
206
244
256
104
176
212
38
137
254
223
242
165
79
132
200
41
166
155
237
108
286
35
204
133
93
145
169
272
143
110
246
216
193
119
251
173
144
282
26
57
255
164
287
274
21
262
211
34
73
257
150
182
159
39
249
135
172
226
241
134
11
201
131
199
54
61
128
197
263
14
268
71
32
280
194
167
261
30
214
118
4
69
175
288
229
248
247
228
66
265
158
224
19
109
186
17
178
177
52
99
259
219
10
6
290
188
187
181
22
264
179
205
9
277
284
125
225
7
161
232
252
195
207
168
275
138
153
18
28
283
270
15
285
113
116
31
230
89
267
129
8
107
160
40
23
142
48
217
273
189
147
276
235
53
20
42
260
266
190
2
12
65
239
174
25
24
5
43
49
63
59
3
13
171

> <PUBCHEM_MMFF94_PARTIAL_CHARGES>
51
1 -0.08
10 -0.71
11 0.27
13 0.18
14 0.18
15 0.27
16 0.27
17 -0.14
18 0.05
19 0.28
2 -0.56
20 0.28
21 0.44
22 0.54
23 0.09
24 -0.15
25 -0.15
26 -0.14
27 0.44
28 -0.15
29 -0.15
3 -0.57
30 0.54
31 0.09
32 0.05
33 -0.15
34 -0.15
35 -0.05
36 -0.15
37 -0.15
38 -0.3
39 0.14
4 -0.57
5 -0.81
55 0.37
56 0.15
57 0.15
6 -0.57
60 0.15
61 0.15
62 0.37
63 0.15
64 0.15
65 0.15
66 0.15
67 0.15
68 0.15
69 0.27
7 -0.49
8 -0.73
9 0.3

> <PUBCHEM_EFFECTIVE_ROTOR_COUNT>
11

> <PUBCHEM_PHARMACOPHORE_FEATURES>
14
1 10 acceptor
1 2 acceptor
1 3 acceptor
1 4 acceptor
1 5 cation
1 7 donor
1 8 donor
1 9 donor
5 1 6 17 18 21 rings
5 9 10 35 38 39 rings
6 11 12 13 14 17 18 rings
6 2 5 15 16 19 20 rings
6 23 24 25 26 28 29 rings
6 31 32 33 34 36 37 rings

> <PUBCHEM_HEAVY_ATOM_COUNT>
39

> <PUBCHEM_ATOM_DEF_STEREO_COUNT>
1

> <PUBCHEM_ATOM_UDEF_STEREO_COUNT>
0

> <PUBCHEM_BOND_DEF_STEREO_COUNT>
0

> <PUBCHEM_BOND_UDEF_STEREO_COUNT>
0

> <PUBCHEM_ISOTOPIC_ATOM_COUNT>
0

> <PUBCHEM_COMPONENT_COUNT>
1

> <PUBCHEM_CACTVS_TAUTO_COUNT>
6

> <PUBCHEM_CONFORMER_ID>
0510961600000001

> <PUBCHEM_MMFF94_ENERGY>
86.8597

> <PUBCHEM_FEATURE_SELFOVERLAP>
71.118

> <PUBCHEM_SHAPE_FINGERPRINT>
10050765 1 18410573943284011814
100830 39 18410856568462053722
10462674 296 17910385426839179679
11204353 107 18410291398163599136
11476731 118 18340200916496160344
11621639 148 18337967749168432027
11621639 254 18341321250795015215
13165054 49 18190173675861956490
13347071 3 18411703205595976100
13383665 225 18188790435222006950
14068700 686 17903074426118090837
14294032 229 18412267276994323274
14394314 77 18411143566566110811
14747282 140 18410013209528142269
15145343 4 18263634088102340612
15274700 208 17130970106264493312
15276724 80 18342177808522649254
15320467 1 18338797815183823941
15400415 2 17906169555692778388
15444296 7 18114755879573624805
15538507 32 18339359660845951201
16664035 7 18264490766638023255
16992828 155 18413669115349125583
16993438 75 18335707087998087683
17627616 140 17832149699082393957
18608769 82 18411698794923149536
19053607 189 18194949756509068273
20771845 165 18200604587972071871
21133410 38 17624981531012404537
21792964 463 17895210934605798580
21795232 40 18115295680164991861
3418910 222 17976271440672481015
3918712 181 18265329517161918261
437795 83 18341606049095464863
4403749 210 18335134254956120717
5265222 85 18265330604527629089
6036956 94 18049439237181789069
6201320 215 18412259511561629424

> <PUBCHEM_SHAPE_MULTIPOLES>
758.96
22.87
8.59
0.83
48.47
2.54
0.11
9.85
0.06
-13.33
-1.5
-0.82
-0.25
1.08

> <PUBCHEM_SHAPE_SELFOVERLAP>
1648.26

> <PUBCHEM_SHAPE_VOLUME>
416.4

> <PUBCHEM_COORDINATE_TYPE>
2
5
10

$$$$
84973079
  -OEChem-05102415103D

 69 74  0     1  0  0  0  0  0999 V2000
    2.4635   -0.0643   -0.3770 S   0  0  0  0  0  0  0  0  0  0  0  0
    9.3761    3.7195   -0.8747 O   0  0  0  0  0  0  0  0  0  0  0  0
    1.6233   -4.4736    0.9581 O   0  0  0  0  0  0  0  0  0  0  0  0
   -5.8804   -2.3336   -0.4150 O   0  0  0  0  0  0  0  0  0  0  0  0
    7.3096    1.9731    0.0090 N   0  0  0  0  0  0  0  0  0  0  0  0
    3.5584   -2.1905    0.6213 N   0  0  0  0  0  0  0  0  0  0  0  0
    1.2057   -2.3144    0.1092 N   0  0  0  0  0  0  0  0  0  0  0  0
   -3.9014   -1.7428   -1.4703 N   0  0  0  0  0  0  0  0  0  0  0  0
   -6.0989    3.9606    0.3904 N   0  0  0  0  0  0  0  0  0  0  0  0
   -7.2375    5.8150    0.8334 N   0  0  0  0  0  0  0  0  0  0  0  0
    6.4795    0.7774   -0.1216 C   0  0  1  0  0  0  0  0  0  0  0  0
    6.7491   -0.1877    1.0554 C   0  0  0  0  0  0  0  0  0  0  0  0
    4.9901    1.1874   -0.1926 C   0  0  0  0  0  0  0  0  0  0  0  0
    5.9423   -1.4932    0.9213 C   0  0  0  0  0  0  0  0  0  0  0  0
    8.7282    1.6119    0.1370 C   0  0  0  0  0  0  0  0  0  0  0  0
    7.1197    2.8682   -1.1409 C   0  0  0  0  0  0  0  0  0  0  0  0
    4.1235   -0.0129   -0.0060 C   0  0  0  0  0  0  0  0  0  0  0  0
    4.5349   -1.2219    0.5185 C   0  0  0  0  0  0  0  0  0  0  0  0
    9.5749    2.8755    0.2600 C   0  0  0  0  0  0  0  0  0  0  0  0
    8.0049    4.1020   -0.9888 C   0  0  0  0  0  0  0  0  0  0  0  0
    2.4234   -1.6910    0.1798 C   0  0  0  0  0  0  0  0  0  0  0  0
    0.8613   -3.6360    0.4872 C   0  0  0  0  0  0  0  0  0  0  0  0
   -0.5649   -4.0174    0.3137 C   0  0  0  0  0  0  0  0  0  0  0  0
   -1.3425   -3.3877   -0.6582 C   0  0  0  0  0  0  0  0  0  0  0  0
   -1.1245   -5.0080    1.1208 C   0  0  0  0  0  0  0  0  0  0  0  0
   -2.6797   -3.7486   -0.8228 C   0  0  0  0  0  0  0  0  0  0  0  0
   -3.5127   -3.0742   -1.8604 C   0  0  0  0  0  0  0  0  0  0  0  0
   -2.4616   -5.3687    0.9562 C   0  0  0  0  0  0  0  0  0  0  0  0
   -3.2395   -4.7389   -0.0156 C   0  0  0  0  0  0  0  0  0  0  0  0
   -5.0708   -1.4808   -0.7696 C   0  0  0  0  0  0  0  0  0  0  0  0
   -5.3414   -0.0521   -0.4656 C   0  0  0  0  0  0  0  0  0  0  0  0
   -5.8484    2.6308    0.1063 C   0  0  0  0  0  0  0  0  0  0  0  0
   -6.6541    0.3895   -0.2982 C   0  0  0  0  0  0  0  0  0  0  0  0
   -4.2824    0.8479   -0.3468 C   0  0  0  0  0  0  0  0  0  0  0  0
   -6.9075    1.7309   -0.0122 C   0  0  0  0  0  0  0  0  0  0  0  0
   -4.5358    2.1894   -0.0610 C   0  0  0  0  0  0  0  0  0  0  0  0
   -5.1650    4.9479    0.5341 C   0  0  0  0  0  0  0  0  0  0  0  0
   -7.3281    4.5286    0.5788 C   0  0  0  0  0  0  0  0  0  0  0  0
   -5.8916    6.0828    0.8071 C   0  0  0  0  0  0  0  0  0  0  0  0
    6.7346    0.2435   -1.0499 H   0  0  0  0  0  0  0  0  0  0  0  0
    6.4935    0.3031    2.0043 H   0  0  0  0  0  0  0  0  0  0  0  0
    7.7908   -0.5119    1.1225 H   0  0  0  0  0  0  0  0  0  0  0  0
    4.7522    1.6366   -1.1636 H   0  0  0  0  0  0  0  0  0  0  0  0
    4.7506    1.9173    0.5917 H   0  0  0  0  0  0  0  0  0  0  0  0
    5.9671   -2.0415    1.8694 H   0  0  0  0  0  0  0  0  0  0  0  0
    6.4053   -2.1322    0.1595 H   0  0  0  0  0  0  0  0  0  0  0  0
    9.0606    1.0262   -0.7296 H   0  0  0  0  0  0  0  0  0  0  0  0
    8.9397    1.0491    1.0489 H   0  0  0  0  0  0  0  0  0  0  0  0
    6.0924    3.2361   -1.2134 H   0  0  0  0  0  0  0  0  0  0  0  0
    7.3705    2.3513   -2.0762 H   0  0  0  0  0  0  0  0  0  0  0  0
   10.6370    2.6118    0.2951 H   0  0  0  0  0  0  0  0  0  0  0  0
    9.3415    3.4330    1.1755 H   0  0  0  0  0  0  0  0  0  0  0  0
    7.9110    4.7401   -1.8733 H   0  0  0  0  0  0  0  0  0  0  0  0
    7.7184    4.7012   -0.1157 H   0  0  0  0  0  0  0  0  0  0  0  0
    0.4706   -1.7027   -0.2324 H   0  0  0  0  0  0  0  0  0  0  0  0
   -0.9272   -2.6373   -1.3250 H   0  0  0  0  0  0  0  0  0  0  0  0
   -0.5377   -5.5077    1.8870 H   0  0  0  0  0  0  0  0  0  0  0  0
   -2.9506   -2.9931   -2.7982 H   0  0  0  0  0  0  0  0  0  0  0  0
   -4.4118   -3.6603   -2.0849 H   0  0  0  0  0  0  0  0  0  0  0  0
   -2.8980   -6.1388    1.5856 H   0  0  0  0  0  0  0  0  0  0  0  0
   -4.2804   -5.0289   -0.1310 H   0  0  0  0  0  0  0  0  0  0  0  0
   -3.3016   -0.9858   -1.7799 H   0  0  0  0  0  0  0  0  0  0  0  0
   -7.4923   -0.2962   -0.3912 H   0  0  0  0  0  0  0  0  0  0  0  0
   -3.2450    0.5396   -0.4369 H   0  0  0  0  0  0  0  0  0  0  0  0
   -7.9480    2.0134    0.1058 H   0  0  0  0  0  0  0  0  0  0  0  0
   -3.6717    2.8392    0.0265 H   0  0  0  0  0  0  0  0  0  0  0  0
   -4.0969    4.8145    0.4430 H   0  0  0  0  0  0  0  0  0  0  0  0
   -8.2706    4.0016    0.5287 H   0  0  0  0  0  0  0  0  0  0  0  0
   -5.5143    7.0790    0.9859 H   0  0  0  0  0  0  0  0  0  0  0  0
  1 17  1  0  0  0  0
  1 21  1  0  0  0  0
  2 19  1  0  0  0  0
  2 20  1  0  0  0  0
  3 22  2  0  0  0  0
  4 30  2  0  0  0  0
  5 11  1  0  0  0  0
  5 15  1  0  0  0  0
  5 16  1  0  0  0  0
  6 18  1  0  0  0  0
  6 21  2  0  0  0  0
  7 21  1  0  0  0  0
  7 22  1  0  0  0  0
  7 55  1  0  0  0  0
  8 27  1  0  0  0  0
  8 30  1  0  0  0  0
  8 62  1  0  0  0  0
  9 32  1  0  0  0  0
  9 37  1  0  0  0  0
  9 38  1  0  0  0  0
 10 38  2  0  0  0  0
 10 39  1  0  0  0  0
 11 12  1  0  0  0  0
 11 13  1  0  0  0  0
 11 40  1  0  0  0  0
 12 14  1  0  0  0  0
 12 41  1  0  0  0  0
 12 42  1  0  0  0  0
 13 17  1  0  0  0  0
 13 43  1  0  0  0  0
 13 44  1  0  0  0  0
 14 18  1  0  0  0  0
 14 45  1  0  0  0  0
 14 46  1  0  0  0  0
 15 19  1  0  0  0  0
 15 47  1  0  0  0  0
 15 48  1  0  0  0  0
 16 20  1  0  0  0  0
 16 49  1  0  0  0  0
 16 50  1  0  0  0  0
 17 18  2  0  0  0  0
 19 51  1  0  0  0  0
 19 52  1  0  0  0  0
 20 53  1  0  0  0  0
 20 54  1  0  0  0  0
 22 23  1  0  0  0  0
 23 24  1  0  0  0  0
 23 25  2  0  0  0  0
 24 26  2  0  0  0  0
 24 56  1  0  0  0  0
 25 28  1  0  0  0  0
 25 57  1  0  0  0  0
 26 27  1  0  0  0  0
 26 29  1  0  0  0  0
 27 58  1  0  0  0  0
 27 59  1  0  0  0  0
 28 29  2  0  0  0  0
 28 60  1  0  0  0  0
 29 61  1  0  0  0  0
 30 31  1  0  0  0  0
 31 33  2  0  0  0  0
 31 34  1  0  0  0  0
 32 35  2  0  0  0  0
 32 36  1  0  0  0  0
 33 35  1  0  0  0  0
 33 63  1  0  0  0  0
 34 36  2  0  0  0  0
 34 64  1  0  0  0  0
 35 65  1  0  0  0  0
 36 66  1  0  0  0  0
 37 39  2  0  0  0  0
 37 67  1  0  0  0  0
 38 68  1  0  0  0  0
 39 69  1  0  0  0  0
M  END
> <PUBCHEM_COMPOUND_CID>
84973079

> <PUBCHEM_CONFORMER_RMSD>
1.2

> <PUBCHEM_CONFORMER_DIVERSEORDER>
1
85
53
63
16
80
41
6
58
96
55
28
70
89
66
87
36
51
42
12
72
11
76
49
23
50
74
44
31
38
35
46
60
43
112
105
48
99
68
91
75
102
83
62
97
20
93
40
26
82
114
56
90
37
79
73
111
15
106
39
110
107
18
45
22
54
57
100
30
113
25
101
7
10
65
67
88
78
19
61
94
77
27
34
21
84
98
92
71
33
52
108
24
8
81
95
64
59
3
69
47
9
109
4
13
86
29
5
14
32
103
104
2
17

> <PUBCHEM_MMFF94_PARTIAL_CHARGES>
51
1 -0.08
10 -0.57
11 0.27
13 0.18
14 0.18
15 0.27
16 0.27
17 -0.14
18 0.05
19 0.28
2 -0.56
20 0.28
21 0.44
22 0.54
23 0.09
24 -0.15
25 -0.15
26 -0.14
27 0.44
28 -0.15
29 -0.15
3 -0.57
30 0.54
31 0.09
32 -0.02
33 -0.15
34 -0.15
35 -0.15
36 -0.15
37 -0.3
38 0.04
39 0.08
4 -0.57
5 -0.81
55 0.37
56 0.15
57 0.15
6 -0.57
60 0.15
61 0.15
62 0.37
63 0.15
64 0.15
65 0.15
66 0.15
67 0.15
68 0.15
69 0.15
7 -0.49
8 -0.73
9 0.33

> <PUBCHEM_EFFECTIVE_ROTOR_COUNT>
11

> <PUBCHEM_PHARMACOPHORE_FEATURES>
13
1 2 acceptor
1 3 acceptor
1 4 acceptor
1 5 cation
1 7 donor
1 8 donor
3 9 10 38 cation
5 1 6 17 18 21 rings
5 9 10 37 38 39 rings
6 11 12 13 14 17 18 rings
6 2 5 15 16 19 20 rings
6 23 24 25 26 28 29 rings
6 31 32 33 34 35 36 rings

> <PUBCHEM_HEAVY_ATOM_COUNT>
39

> <PUBCHEM_ATOM_DEF_STEREO_COUNT>
1

> <PUBCHEM_ATOM_UDEF_STEREO_COUNT>
0

> <PUBCHEM_BOND_DEF_STEREO_COUNT>
0

> <PUBCHEM_BOND_UDEF_STEREO_COUNT>
0

> <PUBCHEM_ISOTOPIC_ATOM_COUNT>
0

> <PUBCHEM_COMPONENT_COUNT>
1

> <PUBCHEM_CACTVS_TAUTO_COUNT>
6

> <PUBCHEM_CONFORMER_ID>
0510961700000001

> <PUBCHEM_MMFF94_ENERGY>
93.8403

> <PUBCHEM_FEATURE_SELFOVERLAP>
66.042

> <PUBCHEM_SHAPE_FINGERPRINT>
10917259 128 18339909511992489664
10917259 69 18339924797771007006
11181472 205 18187363295052106308
11408170 253 18268436900473513120
11479125 193 18195252105796620345
11505856 67 18270665504039615479
11828042 163 18197503914100493510
11828042 53 18411703206029096816
12013929 29 18410570683128962646
12218070 45 18333731333827235317
12975358 362 17842565033741565665
14747282 140 18261103076738988213
15198563 99 17771884281665294687
15400415 2 18339074870539155193
155225 6 18125439705812708529
16067689 134 18409173190881079932
16112460 7 18261105313984347310
16126227 98 18409166636074917319
16728433 281 18410574011491610504
18339144 43 17750538311114810548
19053607 189 18341883070380824706
19302320 297 17833547899826840723
19309040 13 18130218264192267055
20737093 133 18410577280574035545
21772524 286 18336270144713962824
21792965 106 18340200899759175994
23569914 152 17413605952258432726
397830 11 8213872436401439590
4366758 26 18339924788490210041
437795 171 17973719173990519837
44280116 191 17834976173430289093
44802255 64 17488746825507743862
5265222 85 18412827967552665873
5776283 40 18269550697088026451
5951187 136 17768531591301635583
59520647 147 18195815068003057497
6036956 94 18055356838890359433
6201320 215 18338234989478876202
6673363 416 18196369445454710343

> <PUBCHEM_SHAPE_MULTIPOLES>
758.96
29.77
10.46
1.09
45.07
3.39
-0.18
52.76
-1.02
-17.92
2.55
-0.08
-0.42
-5.94

> <PUBCHEM_SHAPE_SELFOVERLAP>
1646.925

> <PUBCHEM_SHAPE_VOLUME>
416.6

> <PUBCHEM_COORDINATE_TYPE>
2
5
10

$$$$
84973080
  -OEChem-05102415113D

 70 75  0     1  0  0  0  0  0999 V2000
    2.6671   -0.0706   -0.3840 S   0  0  0  0  0  0  0  0  0  0  0  0
    9.4553    3.9360   -0.8492 O   0  0  0  0  0  0  0  0  0  0  0  0
    1.9585   -4.4891    0.9963 O   0  0  0  0  0  0  0  0  0  0  0  0
   -5.5955   -2.6182   -0.4897 O   0  0  0  0  0  0  0  0  0  0  0  0
    7.4377    2.1323    0.0323 N   0  0  0  0  0  0  0  0  0  0  0  0
    3.8203   -2.1468    0.6533 N   0  0  0  0  0  0  0  0  0  0  0  0
    1.4792   -2.3556    0.1157 N   0  0  0  0  0  0  0  0  0  0  0  0
   -3.6249   -1.9743   -1.5294 N   0  0  0  0  0  0  0  0  0  0  0  0
   -6.0332    3.6745    0.2347 N   0  0  0  0  0  0  0  0  0  0  0  0
   -5.2519    4.6734   -0.1990 N   0  0  0  0  0  0  0  0  0  0  0  0
   -6.9835    5.4904    0.9429 N   0  0  0  0  0  0  0  0  0  0  0  0
   -5.8382    5.7817    0.2369 N   0  0  0  0  0  0  0  0  0  0  0  0
    6.6495    0.9079   -0.0929 C   0  0  1  0  0  0  0  0  0  0  0  0
    6.9371   -0.0332    1.0991 C   0  0  0  0  0  0  0  0  0  0  0  0
    5.1482    1.2671   -0.1861 C   0  0  0  0  0  0  0  0  0  0  0  0
    6.1759   -1.3666    0.9719 C   0  0  0  0  0  0  0  0  0  0  0  0
    7.2318    3.0066   -1.1308 C   0  0  0  0  0  0  0  0  0  0  0  0
    8.8659    1.8203    0.1811 C   0  0  0  0  0  0  0  0  0  0  0  0
    4.3199    0.0408    0.0054 C   0  0  0  0  0  0  0  0  0  0  0  0
    4.7651   -1.1474    0.5497 C   0  0  0  0  0  0  0  0  0  0  0  0
    8.0735    4.2710   -0.9838 C   0  0  0  0  0  0  0  0  0  0  0  0
    9.6685    3.1129    0.2981 C   0  0  0  0  0  0  0  0  0  0  0  0
    2.6746   -1.6910    0.1925 C   0  0  0  0  0  0  0  0  0  0  0  0
    1.1746   -3.6833    0.5062 C   0  0  0  0  0  0  0  0  0  0  0  0
   -0.2359   -4.1143    0.3211 C   0  0  0  0  0  0  0  0  0  0  0  0
   -1.0224   -3.5227   -0.6675 C   0  0  0  0  0  0  0  0  0  0  0  0
   -0.7717   -5.1132    1.1340 C   0  0  0  0  0  0  0  0  0  0  0  0
   -2.3448   -3.9301   -0.8429 C   0  0  0  0  0  0  0  0  0  0  0  0
   -3.1874   -3.2966   -1.8983 C   0  0  0  0  0  0  0  0  0  0  0  0
   -2.0941   -5.5204    0.9585 C   0  0  0  0  0  0  0  0  0  0  0  0
   -2.8808   -4.9288   -0.0300 C   0  0  0  0  0  0  0  0  0  0  0  0
   -4.8106   -1.7431   -0.8455 C   0  0  0  0  0  0  0  0  0  0  0  0
   -5.1323   -0.3207   -0.5624 C   0  0  0  0  0  0  0  0  0  0  0  0
   -5.7351    2.3505   -0.0299 C   0  0  0  0  0  0  0  0  0  0  0  0
   -6.4608    0.0787   -0.4157 C   0  0  0  0  0  0  0  0  0  0  0  0
   -4.1053    0.6156   -0.4427 C   0  0  0  0  0  0  0  0  0  0  0  0
   -6.7622    1.4142   -0.1494 C   0  0  0  0  0  0  0  0  0  0  0  0
   -4.4067    1.9512   -0.1766 C   0  0  0  0  0  0  0  0  0  0  0  0
   -7.0850    4.1813    0.9291 C   0  0  0  0  0  0  0  0  0  0  0  0
   -8.1403    3.3594    1.5467 C   0  0  0  0  0  0  0  0  0  0  0  0
    6.9332    0.3717   -1.0115 H   0  0  0  0  0  0  0  0  0  0  0  0
    6.6540    0.4602    2.0388 H   0  0  0  0  0  0  0  0  0  0  0  0
    7.9881   -0.3215    1.1822 H   0  0  0  0  0  0  0  0  0  0  0  0
    4.9071    1.6963   -1.1653 H   0  0  0  0  0  0  0  0  0  0  0  0
    4.8752    1.9979    0.5863 H   0  0  0  0  0  0  0  0  0  0  0  0
    6.2076   -1.9023    1.9271 H   0  0  0  0  0  0  0  0  0  0  0  0
    6.6689   -1.9989    0.2236 H   0  0  0  0  0  0  0  0  0  0  0  0
    7.5109    2.4871   -2.0566 H   0  0  0  0  0  0  0  0  0  0  0  0
    6.1937    3.3390   -1.2197 H   0  0  0  0  0  0  0  0  0  0  0  0
    9.2279    1.2357   -0.6742 H   0  0  0  0  0  0  0  0  0  0  0  0
    9.0852    1.2760    1.1024 H   0  0  0  0  0  0  0  0  0  0  0  0
    7.9689    4.8950   -1.8773 H   0  0  0  0  0  0  0  0  0  0  0  0
    7.7568    4.8708   -0.1217 H   0  0  0  0  0  0  0  0  0  0  0  0
    9.4058    3.6733    1.2038 H   0  0  0  0  0  0  0  0  0  0  0  0
   10.7383    2.8853    0.3487 H   0  0  0  0  0  0  0  0  0  0  0  0
    0.7283   -1.7730   -0.2418 H   0  0  0  0  0  0  0  0  0  0  0  0
   -0.6245   -2.7669   -1.3387 H   0  0  0  0  0  0  0  0  0  0  0  0
   -0.1778   -5.5837    1.9131 H   0  0  0  0  0  0  0  0  0  0  0  0
   -2.6172   -3.2080   -2.8305 H   0  0  0  0  0  0  0  0  0  0  0  0
   -4.0637   -3.9150   -2.1259 H   0  0  0  0  0  0  0  0  0  0  0  0
   -2.5120   -6.2970    1.5925 H   0  0  0  0  0  0  0  0  0  0  0  0
   -3.9101   -5.2547   -0.1536 H   0  0  0  0  0  0  0  0  0  0  0  0
   -3.0469   -1.2014   -1.8412 H   0  0  0  0  0  0  0  0  0  0  0  0
   -7.2752   -0.6320   -0.5308 H   0  0  0  0  0  0  0  0  0  0  0  0
   -3.0571    0.3414   -0.5150 H   0  0  0  0  0  0  0  0  0  0  0  0
   -7.8133    1.6682   -0.1472 H   0  0  0  0  0  0  0  0  0  0  0  0
   -3.5844    2.6549   -0.0723 H   0  0  0  0  0  0  0  0  0  0  0  0
   -7.7595    2.4643    2.0458 H   0  0  0  0  0  0  0  0  0  0  0  0
   -8.6274    3.9484    2.3340 H   0  0  0  0  0  0  0  0  0  0  0  0
   -8.9296    3.1090    0.8326 H   0  0  0  0  0  0  0  0  0  0  0  0
  1 19  1  0  0  0  0
  1 23  1  0  0  0  0
  2 21  1  0  0  0  0
  2 22  1  0  0  0  0
  3 24  2  0  0  0  0
  4 32  2  0  0  0  0
  5 13  1  0  0  0  0
  5 17  1  0  0  0  0
  5 18  1  0  0  0  0
  6 20  1  0  0  0  0
  6 23  2  0  0  0  0
  7 23  1  0  0  0  0
  7 24  1  0  0  0  0
  7 56  1  0  0  0  0
  8 29  1  0  0  0  0
  8 32  1  0  0  0  0
  8 63  1  0  0  0  0
  9 10  1  0  0  0  0
  9 34  1  0  0  0  0
  9 39  1  0  0  0  0
 10 12  2  0  0  0  0
 11 12  1  0  0  0  0
 11 39  2  0  0  0  0
 13 14  1  0  0  0  0
 13 15  1  0  0  0  0
 13 41  1  0  0  0  0
 14 16  1  0  0  0  0
 14 42  1  0  0  0  0
 14 43  1  0  0  0  0
 15 19  1  0  0  0  0
 15 44  1  0  0  0  0
 15 45  1  0  0  0  0
 16 20  1  0  0  0  0
 16 46  1  0  0  0  0
 16 47  1  0  0  0  0
 17 21  1  0  0  0  0
 17 48  1  0  0  0  0
 17 49  1  0  0  0  0
 18 22  1  0  0  0  0
 18 50  1  0  0  0  0
 18 51  1  0  0  0  0
 19 20  2  0  0  0  0
 21 52  1  0  0  0  0
 21 53  1  0  0  0  0
 22 54  1  0  0  0  0
 22 55  1  0  0  0  0
 24 25  1  0  0  0  0
 25 26  1  0  0  0  0
 25 27  2  0  0  0  0
 26 28  2  0  0  0  0
 26 57  1  0  0  0  0
 27 30  1  0  0  0  0
 27 58  1  0  0  0  0
 28 29  1  0  0  0  0
 28 31  1  0  0  0  0
 29 59  1  0  0  0  0
 29 60  1  0  0  0  0
 30 31  2  0  0  0  0
 30 61  1  0  0  0  0
 31 62  1  0  0  0  0
 32 33  1  0  0  0  0
 33 35  2  0  0  0  0
 33 36  1  0  0  0  0
 34 37  2  0  0  0  0
 34 38  1  0  0  0  0
 35 37  1  0  0  0  0
 35 64  1  0  0  0  0
 36 38  2  0  0  0  0
 36 65  1  0  0  0  0
 37 66  1  0  0  0  0
 38 67  1  0  0  0  0
 39 40  1  0  0  0  0
 40 68  1  0  0  0  0
 40 69  1  0  0  0  0
 40 70  1  0  0  0  0
M  END
> <PUBCHEM_COMPOUND_CID>
84973080

> <PUBCHEM_CONFORMER_RMSD>
1.2

> <PUBCHEM_CONFORMER_DIVERSEORDER>
1
132
29
137
101
70
25
123
92
8
185
198
125
112
99
32
93
34
69
18
98
194
151
66
109
52
49
182
38
133
161
60
20
193
160
179
63
197
122
33
152
140
46
39
88
59
177
163
90
35
130
17
62
68
67
43
75
180
11
181
115
167
108
136
195
42
100
146
139
77
107
54
128
85
120
37
117
118
175
21
73
78
190
158
53
149
126
95
156
178
141
47
135
145
41
114
40
44
157
199
14
81
91
164
113
150
19
187
51
129
111
89
159
3
165
191
87
74
57
153
183
7
82
71
148
116
121
72
64
86
196
184
168
192
5
155
15
189
176
61
119
186
102
134
22
124
105
26
174
16
6
31
10
65
23
96
138
131
56
80
28
55
171
127
172
79
4
147
97
170
84
110
154
45
173
188
104
58
166
106
169
27
13
143
162
103
50
48
12
30
76
2
36
24
9
142
83
94
144

> <PUBCHEM_MMFF94_PARTIAL_CHARGES>
48
1 -0.08
10 -0.42
11 -0.34
13 0.27
15 0.18
16 0.18
17 0.27
18 0.27
19 -0.14
2 -0.56
20 0.05
21 0.28
22 0.28
23 0.44
24 0.54
25 0.09
26 -0.15
27 -0.15
28 -0.14
29 0.44
3 -0.57
30 -0.15
31 -0.15
32 0.54
33 0.09
34 -0.02
35 -0.15
36 -0.15
37 -0.15
38 -0.15
39 0.01
4 -0.57
40 0.18
5 -0.81
56 0.37
57 0.15
58 0.15
6 -0.57
61 0.15
62 0.15
63 0.37
64 0.15
65 0.15
66 0.15
67 0.15
7 -0.49
8 -0.73
9 0.59

> <PUBCHEM_EFFECTIVE_ROTOR_COUNT>
11

> <PUBCHEM_PHARMACOPHORE_FEATURES>
13
1 2 acceptor
1 3 acceptor
1 4 acceptor
1 5 cation
1 7 donor
1 8 donor
3 9 11 39 cation
5 1 6 19 20 23 rings
5 9 10 11 12 39 rings
6 13 14 15 16 19 20 rings
6 2 5 17 18 21 22 rings
6 25 26 27 28 30 31 rings
6 33 34 35 36 37 38 rings

> <PUBCHEM_HEAVY_ATOM_COUNT>
40

> <PUBCHEM_ATOM_DEF_STEREO_COUNT>
1

> <PUBCHEM_ATOM_UDEF_STEREO_COUNT>
0

> <PUBCHEM_BOND_DEF_STEREO_COUNT>
0

> <PUBCHEM_BOND_UDEF_STEREO_COUNT>
0

> <PUBCHEM_ISOTOPIC_ATOM_COUNT>
0

> <PUBCHEM_COMPONENT_COUNT>
1

> <PUBCHEM_CACTVS_TAUTO_COUNT>
6

> <PUBCHEM_CONFORMER_ID>
0510961800000001

> <PUBCHEM_MMFF94_ENERGY>
101.0645

> <PUBCHEM_FEATURE_SELFOVERLAP>
66.042

> <PUBCHEM_SHAPE_FINGERPRINT>
10917259 128 18339626950431225128
10917259 69 18339923711212839918
11181472 205 18115022031340860420
11479125 193 18266745671802215571
11505856 67 18270946987569382983
11828042 163 18197503927053999670
11828042 53 18411420640167590232
12013929 29 18410288117278070566
12218070 45 18261391178096115645
12975358 362 17842565038036519945
14747282 140 18333723625009460981
15198563 99 17700109270610746215
15400415 2 18339073783827896841
15448158 71 18340486673623765583
155225 6 18197778787659365033
16067689 134 18409736149419193564
16126227 98 18409166640396303886
16728433 281 18410574033040196024
16992727 255 18343017774806853338
18339144 43 17750817595684541500
19053607 189 18342446037651408082
19302320 297 17977380534694132731
19309040 13 18130500847191464271
20737093 133 18410577284842609585
21133410 52 17913202342689309887
21772524 286 18335706103849254856
23523787 8 11237505133008716539
23569914 152 17485946133753990518
397830 11 8285932233826188078
4366758 26 18339642231055010241
437795 171 17973718083037087221
44280116 191 17907033780426906972
44802255 64 17488465359273974590
44880568 143 18342180003462292070
5265222 85 18412826872283199361
5776283 40 18269269234816980011
5951187 136 17912366420976356655
59520647 147 18267872670572839233
6036956 94 18127414441486469513
6201320 215 18337953527476842114
6673363 416 18124311864201554991

> <PUBCHEM_SHAPE_MULTIPOLES>
769.57
30.61
10.26
1.17
43.06
0.72
-0.09
56.28
1.01
-14.96
1.97
-0.55
-0.33
-6.19

> <PUBCHEM_SHAPE_SELFOVERLAP>
1662.864

> <PUBCHEM_SHAPE_VOLUME>
423.9

> <PUBCHEM_COORDINATE_TYPE>
2
5
10

$$$$
84973081
  -OEChem-05102415113D

 67 72  0     1  0  0  0  0  0999 V2000
    2.5838    0.0040   -0.3842 S   0  0  0  0  0  0  0  0  0  0  0  0
    9.4771    3.8289   -0.8333 O   0  0  0  0  0  0  0  0  0  0  0  0
    1.7489   -4.3781    1.0407 O   0  0  0  0  0  0  0  0  0  0  0  0
   -5.7382   -2.3196   -0.5360 O   0  0  0  0  0  0  0  0  0  0  0  0
    7.4058    2.0882    0.0505 N   0  0  0  0  0  0  0  0  0  0  0  0
    3.6737   -2.0888    0.6877 N   0  0  0  0  0  0  0  0  0  0  0  0
    1.3329   -2.2435    0.1310 N   0  0  0  0  0  0  0  0  0  0  0  0
   -6.3303    0.4104    0.0114 N   0  0  0  0  0  0  0  0  0  0  0  0
   -3.7414   -1.7455   -1.5668 N   0  0  0  0  0  0  0  0  0  0  0  0
   -8.6048    5.7280    1.6534 N   0  0  0  0  0  0  0  0  0  0  0  0
    6.5874    0.8831   -0.0678 C   0  0  1  0  0  0  0  0  0  0  0  0
    6.8400   -0.0509    1.1377 C   0  0  0  0  0  0  0  0  0  0  0  0
    5.0969    1.2796   -0.1791 C   0  0  0  0  0  0  0  0  0  0  0  0
    6.0457   -1.3657    1.0189 C   0  0  0  0  0  0  0  0  0  0  0  0
    8.8241    1.7414    0.2161 C   0  0  0  0  0  0  0  0  0  0  0  0
    7.2330    2.9536   -1.1245 C   0  0  0  0  0  0  0  0  0  0  0  0
    4.2354    0.0774    0.0191 C   0  0  0  0  0  0  0  0  0  0  0  0
    4.6448   -1.1153    0.5812 C   0  0  0  0  0  0  0  0  0  0  0  0
    9.6588    3.0142    0.3254 C   0  0  0  0  0  0  0  0  0  0  0  0
    8.1058    4.1977   -0.9846 C   0  0  0  0  0  0  0  0  0  0  0  0
    2.5442   -1.6091    0.2112 C   0  0  0  0  0  0  0  0  0  0  0  0
    0.9906   -3.5582    0.5341 C   0  0  0  0  0  0  0  0  0  0  0  0
   -0.4289   -3.9549    0.3410 C   0  0  0  0  0  0  0  0  0  0  0  0
   -1.1907   -3.3549   -0.6617 C   0  0  0  0  0  0  0  0  0  0  0  0
   -2.5229   -3.7268   -0.8425 C   0  0  0  0  0  0  0  0  0  0  0  0
   -0.9993   -4.9270    1.1630 C   0  0  0  0  0  0  0  0  0  0  0  0
   -3.3382   -3.0847   -1.9136 C   0  0  0  0  0  0  0  0  0  0  0  0
   -6.3099    1.7839    0.1016 C   0  0  0  0  0  0  0  0  0  0  0  0
   -5.2101   -0.0371   -0.6362 C   0  0  0  0  0  0  0  0  0  0  0  0
   -5.1335    2.2186   -0.5127 C   0  0  0  0  0  0  0  0  0  0  0  0
   -3.0934   -4.6989   -0.0205 C   0  0  0  0  0  0  0  0  0  0  0  0
   -2.3316   -5.2987    0.9824 C   0  0  0  0  0  0  0  0  0  0  0  0
   -4.4498    1.0587   -0.9736 C   0  0  0  0  0  0  0  0  0  0  0  0
   -4.9260   -1.4718   -0.8967 C   0  0  0  0  0  0  0  0  0  0  0  0
   -7.2333    2.6659    0.6741 C   0  0  0  0  0  0  0  0  0  0  0  0
   -4.8634    3.6006   -0.5593 C   0  0  0  0  0  0  0  0  0  0  0  0
   -6.9442    4.0322    0.6158 C   0  0  0  0  0  0  0  0  0  0  0  0
   -5.7781    4.4946    0.0089 C   0  0  0  0  0  0  0  0  0  0  0  0
   -7.8608    4.9683    1.1885 C   0  0  0  0  0  0  0  0  0  0  0  0
    6.8654    0.3289   -0.9775 H   0  0  0  0  0  0  0  0  0  0  0  0
    6.5613    0.4607    2.0689 H   0  0  0  0  0  0  0  0  0  0  0  0
    7.8824   -0.3652    1.2338 H   0  0  0  0  0  0  0  0  0  0  0  0
    4.8756    1.7033   -1.1653 H   0  0  0  0  0  0  0  0  0  0  0  0
    4.8359    2.0263    0.5822 H   0  0  0  0  0  0  0  0  0  0  0  0
    6.0550   -1.8907    1.9805 H   0  0  0  0  0  0  0  0  0  0  0  0
    6.5289   -2.0193    0.2826 H   0  0  0  0  0  0  0  0  0  0  0  0
    9.0210    1.2026    1.1456 H   0  0  0  0  0  0  0  0  0  0  0  0
    9.1786    1.1375   -0.6290 H   0  0  0  0  0  0  0  0  0  0  0  0
    7.5067    2.4161   -2.0417 H   0  0  0  0  0  0  0  0  0  0  0  0
    6.2047    3.3116   -1.2268 H   0  0  0  0  0  0  0  0  0  0  0  0
    9.4026    3.5919    1.2221 H   0  0  0  0  0  0  0  0  0  0  0  0
   10.7218    2.7598    0.3885 H   0  0  0  0  0  0  0  0  0  0  0  0
    8.0253    4.8135   -1.8862 H   0  0  0  0  0  0  0  0  0  0  0  0
    7.7970    4.8156   -0.1325 H   0  0  0  0  0  0  0  0  0  0  0  0
    0.6005   -1.6460   -0.2403 H   0  0  0  0  0  0  0  0  0  0  0  0
   -0.7662   -2.6198   -1.3396 H   0  0  0  0  0  0  0  0  0  0  0  0
   -0.4253   -5.4030    1.9536 H   0  0  0  0  0  0  0  0  0  0  0  0
   -2.7580   -3.0245   -2.8419 H   0  0  0  0  0  0  0  0  0  0  0  0
   -4.2296   -3.6815   -2.1402 H   0  0  0  0  0  0  0  0  0  0  0  0
   -4.1305   -4.9973   -0.1483 H   0  0  0  0  0  0  0  0  0  0  0  0
   -2.7764   -6.0541    1.6235 H   0  0  0  0  0  0  0  0  0  0  0  0
   -7.0669   -0.1800    0.3727 H   0  0  0  0  0  0  0  0  0  0  0  0
   -3.5022    1.0548   -1.4945 H   0  0  0  0  0  0  0  0  0  0  0  0
   -3.1125   -0.9932   -1.8261 H   0  0  0  0  0  0  0  0  0  0  0  0
   -8.1386    2.2929    1.1440 H   0  0  0  0  0  0  0  0  0  0  0  0
   -3.9582    3.9746   -1.0291 H   0  0  0  0  0  0  0  0  0  0  0  0
   -5.5601    5.5599   -0.0324 H   0  0  0  0  0  0  0  0  0  0  0  0
  1 17  1  0  0  0  0
  1 21  1  0  0  0  0
  2 19  1  0  0  0  0
  2 20  1  0  0  0  0
  3 22  2  0  0  0  0
  4 34  2  0  0  0  0
  5 11  1  0  0  0  0
  5 15  1  0  0  0  0
  5 16  1  0  0  0  0
  6 18  1  0  0  0  0
  6 21  2  0  0  0  0
  7 21  1  0  0  0  0
  7 22  1  0  0  0  0
  7 55  1  0  0  0  0
  8 28  1  0  0  0  0
  8 29  1  0  0  0  0
  8 62  1  0  0  0  0
  9 27  1  0  0  0  0
  9 34  1  0  0  0  0
  9 64  1  0  0  0  0
 10 39  3  0  0  0  0
 11 12  1  0  0  0  0
 11 13  1  0  0  0  0
 11 40  1  0  0  0  0
 12 14  1  0  0  0  0
 12 41  1  0  0  0  0
 12 42  1  0  0  0  0
 13 17  1  0  0  0  0
 13 43  1  0  0  0  0
 13 44  1  0  0  0  0
 14 18  1  0  0  0  0
 14 45  1  0  0  0  0
 14 46  1  0  0  0  0
 15 19  1  0  0  0  0
 15 47  1  0  0  0  0
 15 48  1  0  0  0  0
 16 20  1  0  0  0  0
 16 49  1  0  0  0  0
 16 50  1  0  0  0  0
 17 18  2  0  0  0  0
 19 51  1  0  0  0  0
 19 52  1  0  0  0  0
 20 53  1  0  0  0  0
 20 54  1  0  0  0  0
 22 23  1  0  0  0  0
 23 24  1  0  0  0  0
 23 26  2  0  0  0  0
 24 25  2  0  0  0  0
 24 56  1  0  0  0  0
 25 27  1  0  0  0  0
 25 31  1  0  0  0  0
 26 32  1  0  0  0  0
 26 57  1  0  0  0  0
 27 58  1  0  0  0  0
 27 59  1  0  0  0  0
 28 30  2  0  0  0  0
 28 35  1  0  0  0  0
 29 33  2  0  0  0  0
 29 34  1  0  0  0  0
 30 33  1  0  0  0  0
 30 36  1  0  0  0  0
 31 32  2  0  0  0  0
 31 60  1  0  0  0  0
 32 61  1  0  0  0  0
 33 63  1  0  0  0  0
 35 37  2  0  0  0  0
 35 65  1  0  0  0  0
 36 38  2  0  0  0  0
 36 66  1  0  0  0  0
 37 38  1  0  0  0  0
 37 39  1  0  0  0  0
 38 67  1  0  0  0  0
M  END
> <PUBCHEM_COMPOUND_CID>
84973081

> <PUBCHEM_CONFORMER_RMSD>
1.4

> <PUBCHEM_CONFORMER_DIVERSEORDER>
1
33
66
73
10
53
80
90
32
113
76
62
38
61
28
112
64
4
14
89
24
18
74
21
106
119
67
78
81
12
75
50
83
105
5
30
42
36
108
102
51
88
20
26
124
110
48
82
37
45
114
109
43
63
25
84
85
68
100
17
65
44
19
115
71
96
60
31
70
92
27
52
9
87
23
125
16
39
103
117
86
6
49
129
34
123
79
55
118
69
57
91
116
11
54
41
29
35
77
56
13
95
47
128
122
101
58
120
104
59
7
3
15
107
93
94
98
46
97
121
99
127
126
72
22
111
2
40
8

> <PUBCHEM_MMFF94_PARTIAL_CHARGES>
48
1 -0.08
10 -0.56
11 0.27
13 0.18
14 0.18
15 0.27
16 0.27
17 -0.14
18 0.05
19 0.28
2 -0.56
20 0.28
21 0.44
22 0.54
23 0.09
24 -0.15
25 -0.14
26 -0.15
27 0.44
28 -0.15
29 -0.24
3 -0.57
31 -0.15
32 -0.15
33 -0.15
34 0.71
35 -0.15
36 -0.15
37 0.07
38 -0.15
39 0.48
4 -0.57
5 -0.81
55 0.37
56 0.15
57 0.15
6 -0.57
60 0.15
61 0.15
62 0.27
63 0.15
64 0.37
65 0.15
66 0.15
67 0.15
7 -0.49
8 0.03
9 -0.73

> <PUBCHEM_EFFECTIVE_ROTOR_COUNT>
10

> <PUBCHEM_PHARMACOPHORE_FEATURES>
15
1 10 acceptor
1 2 acceptor
1 3 acceptor
1 4 acceptor
1 5 cation
1 7 donor
1 8 cation
1 8 donor
1 9 donor
5 1 6 17 18 21 rings
5 8 28 29 30 33 rings
6 11 12 13 14 17 18 rings
6 2 5 15 16 19 20 rings
6 23 24 25 26 31 32 rings
6 28 30 35 36 37 38 rings

> <PUBCHEM_HEAVY_ATOM_COUNT>
39

> <PUBCHEM_ATOM_DEF_STEREO_COUNT>
1

> <PUBCHEM_ATOM_UDEF_STEREO_COUNT>
0

> <PUBCHEM_BOND_DEF_STEREO_COUNT>
0

> <PUBCHEM_BOND_UDEF_STEREO_COUNT>
0

> <PUBCHEM_ISOTOPIC_ATOM_COUNT>
0

> <PUBCHEM_COMPONENT_COUNT>
1

> <PUBCHEM_CACTVS_TAUTO_COUNT>
33

> <PUBCHEM_CONFORMER_ID>
0510961900000001

> <PUBCHEM_MMFF94_ENERGY>
76.8874

> <PUBCHEM_FEATURE_SELFOVERLAP>
76.285

> <PUBCHEM_SHAPE_FINGERPRINT>
10917259 128 18339062900950384272
10917259 69 18339923724087036390
11181472 205 18188205512353165204
11408170 253 18267591380405874320
11479125 193 18194685870135084795
11505856 67 18270382946704817999
11828042 163 18197503926990702638
11828042 53 18411420644393953272
11973864 155 18410583915628179313
12013929 29 18410006642311850934
12061779 8 18411413977896912563
12975358 362 17842282459253370089
13165054 27 18339939181616034161
13726171 33 18339362968676911019
13782708 43 10737278027147131718
14026016 13 18270965627558064297
14040222 383 18341324553113272929
14251764 75 18268427920213543331
14664723 55 18339637845982506863
14747282 140 18261384560342400821
15150950 15 18197499520691796161
15152005 1 8502359036794798785
15198563 99 17700389650423504951
155225 6 18197497321330630705
16067689 134 18409736149276866228
16126227 98 18409166627484709959
16728433 281 18410572920601552840
16992727 255 18342454824869217256
18339144 43 17678478530854113444
19053607 189 18342444938097575746
19302320 297 17977380534804824547
19304671 126 17701823185392628927
19309040 13 18201994391848739159
20737093 133 18410013239683031797
20982279 24 14563626849640808000
21772524 286 18335424624677881704
23378982 89 18343590620534385717
4366758 26 18411137996157707489
437795 171 18044929065943128621
44802255 64 17488465350583761246
44880568 143 18341335578553259078
5265222 85 18411700972371133881
5776283 40 18268986651833607017
59520647 147 18267872670725826545
6036956 94 18127134070321693649
6204607 403 17843129109325416153
636775 72 18266454498520181244
6673363 416 18124030393482875375

> <PUBCHEM_SHAPE_MULTIPOLES>
758.96
31.21
9.88
1.24
37.53
0.64
0.1
-60.57
-2.35
-14.77
-2.35
-0.87
0.11
-6.73

> <PUBCHEM_SHAPE_SELFOVERLAP>
1651.05

> <PUBCHEM_SHAPE_VOLUME>
415.3

> <PUBCHEM_COORDINATE_TYPE>
2
5
10

$$$$
84973082
  -OEChem-05102415113D

 65 69  0     1  0  0  0  0  0999 V2000
   -3.0323   -0.5859   -0.3885 S   0  0  0  0  0  0  0  0  0  0  0  0
    3.7847   -0.8975   -0.6533 S   0  0  0  0  0  0  0  0  0  0  0  0
   -2.8702    3.9692    0.6862 O   0  0  0  0  0  0  0  0  0  0  0  0
    4.9124    2.8112   -0.2470 O   0  0  0  0  0  0  0  0  0  0  0  0
   -7.5658   -3.2550   -0.0597 N   0  0  0  0  0  0  0  0  0  0  0  0
   -4.4553    1.4218    0.4244 N   0  0  0  0  0  0  0  0  0  0  0  0
   -2.1200    1.8431   -0.0022 N   0  0  0  0  0  0  0  0  0  0  0  0
    3.0844    1.8935   -1.3404 N   0  0  0  0  0  0  0  0  0  0  0  0
    5.9099   -1.2826    0.7671 N   0  0  0  0  0  0  0  0  0  0  0  0
    4.3263   -6.0937    0.1093 N   0  0  0  0  0  0  0  0  0  0  0  0
   -6.9023   -1.9648   -0.2359 C   0  0  1  0  0  0  0  0  0  0  0  0
   -7.3579   -0.9786    0.8638 C   0  0  0  0  0  0  0  0  0  0  0  0
   -5.3691   -2.1657   -0.2214 C   0  0  0  0  0  0  0  0  0  0  0  0
   -6.7325    0.4167    0.6758 C   0  0  0  0  0  0  0  0  0  0  0  0
   -4.6853   -0.8469   -0.0802 C   0  0  0  0  0  0  0  0  0  0  0  0
   -5.2834    0.3217    0.3473 C   0  0  0  0  0  0  0  0  0  0  0  0
   -9.0174   -3.0817   -0.0108 C   0  0  0  0  0  0  0  0  0  0  0  0
   -7.1972   -4.1719   -1.1382 C   0  0  0  0  0  0  0  0  0  0  0  0
   -3.2426    1.0608    0.0615 C   0  0  0  0  0  0  0  0  0  0  0  0
   -1.9788    3.2200    0.3015 C   0  0  0  0  0  0  0  0  0  0  0  0
   -0.6118    3.7863    0.1593 C   0  0  0  0  0  0  0  0  0  0  0  0
    0.2903    3.2147   -0.7380 C   0  0  0  0  0  0  0  0  0  0  0  0
    1.5733    3.7458   -0.8709 C   0  0  0  0  0  0  0  0  0  0  0  0
   -0.2309    4.8893    0.9239 C   0  0  0  0  0  0  0  0  0  0  0  0
    2.5384    3.1342   -1.8293 C   0  0  0  0  0  0  0  0  0  0  0  0
    1.9542    4.8487   -0.1064 C   0  0  0  0  0  0  0  0  0  0  0  0
    1.0522    5.4202    0.7912 C   0  0  0  0  0  0  0  0  0  0  0  0
    4.2434    1.8360   -0.5786 C   0  0  0  0  0  0  0  0  0  0  0  0
    4.6898    0.4781   -0.1742 C   0  0  0  0  0  0  0  0  0  0  0  0
    5.7796    0.0783    0.5707 C   0  0  0  0  0  0  0  0  0  0  0  0
    4.9143   -1.8958    0.1666 C   0  0  0  0  0  0  0  0  0  0  0  0
    4.7138   -3.3256    0.1478 C   0  0  0  0  0  0  0  0  0  0  0  0
    6.8012    0.9659    1.1641 C   0  0  0  0  0  0  0  0  0  0  0  0
    3.4583   -3.8508   -0.1371 C   0  0  0  0  0  0  0  0  0  0  0  0
    5.7760   -4.1830    0.4134 C   0  0  0  0  0  0  0  0  0  0  0  0
    3.3181   -5.2292   -0.1438 C   0  0  0  0  0  0  0  0  0  0  0  0
    5.5322   -5.5466    0.3819 C   0  0  0  0  0  0  0  0  0  0  0  0
   -7.1823   -1.5267   -1.2065 H   0  0  0  0  0  0  0  0  0  0  0  0
   -7.0775   -1.3713    1.8508 H   0  0  0  0  0  0  0  0  0  0  0  0
   -8.4402   -0.8175    0.8735 H   0  0  0  0  0  0  0  0  0  0  0  0
   -5.0281   -2.6415   -1.1483 H   0  0  0  0  0  0  0  0  0  0  0  0
   -5.0705   -2.8045    0.6202 H   0  0  0  0  0  0  0  0  0  0  0  0
   -7.2422    0.9376   -0.1437 H   0  0  0  0  0  0  0  0  0  0  0  0
   -6.8779    1.0116    1.5842 H   0  0  0  0  0  0  0  0  0  0  0  0
   -9.5215   -4.0547   -0.0677 H   0  0  0  0  0  0  0  0  0  0  0  0
   -9.3988   -2.4683   -0.8354 H   0  0  0  0  0  0  0  0  0  0  0  0
   -9.3476   -2.6633    0.9450 H   0  0  0  0  0  0  0  0  0  0  0  0
   -7.7713   -5.1033   -1.0617 H   0  0  0  0  0  0  0  0  0  0  0  0
   -6.1502   -4.4836   -1.0734 H   0  0  0  0  0  0  0  0  0  0  0  0
   -7.3845   -3.7469   -2.1311 H   0  0  0  0  0  0  0  0  0  0  0  0
   -1.2924    1.3211   -0.2739 H   0  0  0  0  0  0  0  0  0  0  0  0
    0.0131    2.3769   -1.3716 H   0  0  0  0  0  0  0  0  0  0  0  0
   -0.9163    5.3464    1.6327 H   0  0  0  0  0  0  0  0  0  0  0  0
    2.0384    2.9214   -2.7814 H   0  0  0  0  0  0  0  0  0  0  0  0
    3.3598    3.8247   -2.0547 H   0  0  0  0  0  0  0  0  0  0  0  0
    2.9510    5.2719   -0.1978 H   0  0  0  0  0  0  0  0  0  0  0  0
    1.3495    6.2778    1.3877 H   0  0  0  0  0  0  0  0  0  0  0  0
    2.5908    1.0336   -1.5620 H   0  0  0  0  0  0  0  0  0  0  0  0
    7.3205    1.5349    0.3865 H   0  0  0  0  0  0  0  0  0  0  0  0
    6.3443    1.6682    1.8684 H   0  0  0  0  0  0  0  0  0  0  0  0
    7.5534    0.3884    1.7116 H   0  0  0  0  0  0  0  0  0  0  0  0
    2.5723   -3.2573   -0.3304 H   0  0  0  0  0  0  0  0  0  0  0  0
    6.7733   -3.8187    0.6375 H   0  0  0  0  0  0  0  0  0  0  0  0
    2.3582   -5.6896   -0.3541 H   0  0  0  0  0  0  0  0  0  0  0  0
    6.3271   -6.2578    0.5812 H   0  0  0  0  0  0  0  0  0  0  0  0
  1 15  1  0  0  0  0
  1 19  1  0  0  0  0
  2 29  1  0  0  0  0
  2 31  1  0  0  0  0
  3 20  2  0  0  0  0
  4 28  2  0  0  0  0
  5 11  1  0  0  0  0
  5 17  1  0  0  0  0
  5 18  1  0  0  0  0
  6 16  1  0  0  0  0
  6 19  2  0  0  0  0
  7 19  1  0  0  0  0
  7 20  1  0  0  0  0
  7 51  1  0  0  0  0
  8 25  1  0  0  0  0
  8 28  1  0  0  0  0
  8 58  1  0  0  0  0
  9 30  1  0  0  0  0
  9 31  2  0  0  0  0
 10 36  2  0  0  0  0
 10 37  1  0  0  0  0
 11 12  1  0  0  0  0
 11 13  1  0  0  0  0
 11 38  1  0  0  0  0
 12 14  1  0  0  0  0
 12 39  1  0  0  0  0
 12 40  1  0  0  0  0
 13 15  1  0  0  0  0
 13 41  1  0  0  0  0
 13 42  1  0  0  0  0
 14 16  1  0  0  0  0
 14 43  1  0  0  0  0
 14 44  1  0  0  0  0
 15 16  2  0  0  0  0
 17 45  1  0  0  0  0
 17 46  1  0  0  0  0
 17 47  1  0  0  0  0
 18 48  1  0  0  0  0
 18 49  1  0  0  0  0
 18 50  1  0  0  0  0
 20 21  1  0  0  0  0
 21 22  1  0  0  0  0
 21 24  2  0  0  0  0
 22 23  2  0  0  0  0
 22 52  1  0  0  0  0
 23 25  1  0  0  0  0
 23 26  1  0  0  0  0
 24 27  1  0  0  0  0
 24 53  1  0  0  0  0
 25 54  1  0  0  0  0
 25 55  1  0  0  0  0
 26 27  2  0  0  0  0
 26 56  1  0  0  0  0
 27 57  1  0  0  0  0
 28 29  1  0  0  0  0
 29 30  2  0  0  0  0
 30 33  1  0  0  0  0
 31 32  1  0  0  0  0
 32 34  2  0  0  0  0
 32 35  1  0  0  0  0
 33 59  1  0  0  0  0
 33 60  1  0  0  0  0
 33 61  1  0  0  0  0
 34 36  1  0  0  0  0
 34 62  1  0  0  0  0
 35 37  2  0  0  0  0
 35 63  1  0  0  0  0
 36 64  1  0  0  0  0
 37 65  1  0  0  0  0
M  END
> <PUBCHEM_COMPOUND_CID>
84973082

> <PUBCHEM_CONFORMER_RMSD>
1.2

> <PUBCHEM_CONFORMER_DIVERSEORDER>
1
201
122
184
94
54
52
144
37
110
86
40
43
154
153
160
130
27
96
39
98
30
120
114
49
57
81
194
85
186
161
97
220
45
204
198
95
158
63
124
210
56
125
112
106
47
155
163
211
36
26
83
55
165
53
214
42
84
103
50
219
104
32
199
192
62
189
68
187
141
182
64
127
92
74
116
196
113
170
128
152
31
168
139
70
35
99
91
121
208
65
117
188
28
15
11
134
48
209
9
80
8
221
177
180
88
73
58
78
135
169
123
222
207
126
111
76
23
93
136
7
44
115
34
175
193
213
102
129
178
101
133
138
179
185
109
19
212
61
159
107
100
140
118
59
10
108
164
223
146
197
181
143
71
3
105
119
151
217
150
79
200
20
131
51
90
66
38
218
25
216
89
67
41
149
176
147
16
6
205
46
29
190
156
75
195
162
171
60
13
142
14
137
215
33
82
21
132
167
148
166
12
87
203
69
145
174
5
183
77
72
4
202
2
173
206
24
18
172
157
22
17
191

> <PUBCHEM_MMFF94_PARTIAL_CHARGES>
46
1 -0.08
10 -0.62
11 0.27
13 0.18
14 0.18
15 -0.14
16 0.05
17 0.27
18 0.27
19 0.44
2 -0.08
20 0.54
21 0.09
22 -0.15
23 -0.14
24 -0.15
25 0.44
26 -0.15
27 -0.15
28 0.71
29 -0.05
3 -0.57
30 0.05
31 0.33
32 0.05
33 0.18
34 -0.15
35 -0.15
36 0.16
37 0.16
4 -0.57
5 -0.81
51 0.37
52 0.15
53 0.15
56 0.15
57 0.15
58 0.37
6 -0.57
62 0.15
63 0.15
64 0.15
65 0.15
7 -0.49
8 -0.73
9 -0.57

> <PUBCHEM_EFFECTIVE_ROTOR_COUNT>
9.8

> <PUBCHEM_PHARMACOPHORE_FEATURES>
12
1 10 acceptor
1 3 acceptor
1 4 acceptor
1 5 cation
1 7 donor
1 8 donor
1 9 acceptor
5 1 6 15 16 19 rings
5 2 9 29 30 31 rings
6 10 32 34 35 36 37 rings
6 11 12 13 14 15 16 rings
6 21 22 23 24 26 27 rings

> <PUBCHEM_HEAVY_ATOM_COUNT>
37

> <PUBCHEM_ATOM_DEF_STEREO_COUNT>
1

> <PUBCHEM_ATOM_UDEF_STEREO_COUNT>
0

> <PUBCHEM_BOND_DEF_STEREO_COUNT>
0

> <PUBCHEM_BOND_UDEF_STEREO_COUNT>
0

> <PUBCHEM_ISOTOPIC_ATOM_COUNT>
0

> <PUBCHEM_COMPONENT_COUNT>
1

> <PUBCHEM_CACTVS_TAUTO_COUNT>
6

> <PUBCHEM_CONFORMER_ID>
0510961A00000001

> <PUBCHEM_MMFF94_ENERGY>
85.7515

> <PUBCHEM_FEATURE_SELFOVERLAP>
60.967

> <PUBCHEM_SHAPE_FINGERPRINT>
10049733 168 18060150829229459887
10075450 59 18058467417161990487
10190108 129 18410570675008273278
10622 236 18337675217505965228
11399510 152 17915441832471869824
11478447 30 18046057160457407658
117089 54 18337397041280246682
11801155 225 17765715011435777919
12559416 138 18342728594785992814
13008946 335 17409644793757617912
13553639 21 18334021604886639555
13947947 140 18335146371385397119
14950920 106 17554883279479933112
15019793 15 18049159969781052514
15264996 154 18335715935620636006
15320467 1 18338517555414144490
15467298 65 18125437764303563463
15538507 19 17834673800013322882
15569901 51 18409448064139985787
15728490 83 18337394812265904065
17492 89 18265615373590618808
19301676 85 17977375033040856437
23569943 247 18335421305522503411
24204213 148 18334870407389823956
24893989 43 17628084708284342791
260245 28 18340766043739914759
3886686 26 17763185735275232252
4046055 25 18337673001402423921
4167350 143 18200872980763079099
4408954 87 18057590157680938570
44344687 77 18114475534774304291
4756088 132 17902784163680704938
6057620 51 18334865996242502734
6201320 221 18340192099313300799
6201460 15 18265620879343215910
6441014 3 18194681458513276066
7970288 3 18410856529718034472
9555976 147 17845946117589977529
9831232 110 18338231674143834173

> <PUBCHEM_SHAPE_MULTIPOLES>
727.52
23.27
10.4
1.01
35.95
3.23
-0.18
33.05
2.64
-11.15
0.38
-0.36
-0.57
-2.74

> <PUBCHEM_SHAPE_SELFOVERLAP>
1553.607

> <PUBCHEM_SHAPE_VOLUME>
407.7

> <PUBCHEM_COORDINATE_TYPE>
2
5
10

$$$$
84973083
  -OEChem-05102415113D

 63 67  0     1  0  0  0  0  0999 V2000
   -2.8777   -0.6188   -0.4048 S   0  0  0  0  0  0  0  0  0  0  0  0
   -2.7355    3.9247    0.7206 O   0  0  0  0  0  0  0  0  0  0  0  0
    5.0561    2.7991   -0.1770 O   0  0  0  0  0  0  0  0  0  0  0  0
   -7.4054   -3.3042   -0.1332 N   0  0  0  0  0  0  0  0  0  0  0  0
   -4.3116    1.3758    0.4211 N   0  0  0  0  0  0  0  0  0  0  0  0
   -1.9749    1.8084    0.0137 N   0  0  0  0  0  0  0  0  0  0  0  0
    3.2375    1.8882   -1.2917 N   0  0  0  0  0  0  0  0  0  0  0  0
    5.9472    0.1983    0.6196 N   0  0  0  0  0  0  0  0  0  0  0  0
    6.1483   -1.1113    0.8450 N   0  0  0  0  0  0  0  0  0  0  0  0
    4.6831   -5.9006    0.2190 N   0  0  0  0  0  0  0  0  0  0  0  0
   -6.7446   -2.0103   -0.2912 C   0  0  1  0  0  0  0  0  0  0  0  0
   -7.2098   -1.0375    0.8164 C   0  0  0  0  0  0  0  0  0  0  0  0
   -5.2110   -2.2070   -0.2694 C   0  0  0  0  0  0  0  0  0  0  0  0
   -6.5873    0.3616    0.6475 C   0  0  0  0  0  0  0  0  0  0  0  0
   -4.5318   -0.8879   -0.1096 C   0  0  0  0  0  0  0  0  0  0  0  0
   -5.1360    0.2743    0.3269 C   0  0  0  0  0  0  0  0  0  0  0  0
   -7.0275   -4.2082   -1.2193 C   0  0  0  0  0  0  0  0  0  0  0  0
   -8.8578   -3.1356   -0.0915 C   0  0  0  0  0  0  0  0  0  0  0  0
   -3.0955    1.0222    0.0619 C   0  0  0  0  0  0  0  0  0  0  0  0
   -1.8395    3.1823    0.3333 C   0  0  0  0  0  0  0  0  0  0  0  0
   -0.4734    3.7540    0.2057 C   0  0  0  0  0  0  0  0  0  0  0  0
    0.4359    3.1948   -0.6922 C   0  0  0  0  0  0  0  0  0  0  0  0
    1.7181    3.7310   -0.8114 C   0  0  0  0  0  0  0  0  0  0  0  0
   -0.1004    4.8496    0.9846 C   0  0  0  0  0  0  0  0  0  0  0  0
    2.6909    3.1326   -1.7703 C   0  0  0  0  0  0  0  0  0  0  0  0
    2.0912    4.8265   -0.0325 C   0  0  0  0  0  0  0  0  0  0  0  0
    1.1819    5.3856    0.8657 C   0  0  0  0  0  0  0  0  0  0  0  0
    4.3919    1.8257   -0.5234 C   0  0  0  0  0  0  0  0  0  0  0  0
    4.8398    0.4647   -0.1311 C   0  0  0  0  0  0  0  0  0  0  0  0
    5.1254   -1.6889    0.2093 C   0  0  0  0  0  0  0  0  0  0  0  0
    4.2778   -0.7555   -0.4170 C   0  0  0  0  0  0  0  0  0  0  0  0
    4.9751   -3.1206    0.2126 C   0  0  0  0  0  0  0  0  0  0  0  0
    3.7085   -3.6896    0.1389 C   0  0  0  0  0  0  0  0  0  0  0  0
    6.0958   -3.9400    0.2894 C   0  0  0  0  0  0  0  0  0  0  0  0
    3.6173   -5.0722    0.1455 C   0  0  0  0  0  0  0  0  0  0  0  0
    5.8979   -5.3113    0.2891 C   0  0  0  0  0  0  0  0  0  0  0  0
   -7.0199   -1.5624   -1.2587 H   0  0  0  0  0  0  0  0  0  0  0  0
   -6.9344   -1.4401    1.8007 H   0  0  0  0  0  0  0  0  0  0  0  0
   -8.2926   -0.8795    0.8211 H   0  0  0  0  0  0  0  0  0  0  0  0
   -4.8628   -2.6716   -1.1993 H   0  0  0  0  0  0  0  0  0  0  0  0
   -4.9157   -2.8541    0.5670 H   0  0  0  0  0  0  0  0  0  0  0  0
   -6.7400    0.9461    1.5614 H   0  0  0  0  0  0  0  0  0  0  0  0
   -7.0935    0.8900   -0.1695 H   0  0  0  0  0  0  0  0  0  0  0  0
   -7.5994   -5.1421   -1.1566 H   0  0  0  0  0  0  0  0  0  0  0  0
   -5.9800   -4.5177   -1.1515 H   0  0  0  0  0  0  0  0  0  0  0  0
   -7.2099   -3.7729   -2.2087 H   0  0  0  0  0  0  0  0  0  0  0  0
   -9.3587   -4.1093   -0.1621 H   0  0  0  0  0  0  0  0  0  0  0  0
   -9.2358   -2.5143   -0.9116 H   0  0  0  0  0  0  0  0  0  0  0  0
   -9.1951   -2.7286    0.8668 H   0  0  0  0  0  0  0  0  0  0  0  0
   -1.1441    1.2917   -0.2586 H   0  0  0  0  0  0  0  0  0  0  0  0
    0.1650    2.3633   -1.3367 H   0  0  0  0  0  0  0  0  0  0  0  0
   -0.7914    5.2969    1.6942 H   0  0  0  0  0  0  0  0  0  0  0  0
    2.1975    2.9294   -2.7280 H   0  0  0  0  0  0  0  0  0  0  0  0
    3.5117    3.8279   -1.9829 H   0  0  0  0  0  0  0  0  0  0  0  0
    3.0872    5.2536   -0.1131 H   0  0  0  0  0  0  0  0  0  0  0  0
    1.4731    6.2374    1.4734 H   0  0  0  0  0  0  0  0  0  0  0  0
    2.7364    1.0392   -1.5314 H   0  0  0  0  0  0  0  0  0  0  0  0
    3.3873   -0.9465   -0.9991 H   0  0  0  0  0  0  0  0  0  0  0  0
    6.6082    0.8584    1.0101 H   0  0  0  0  0  0  0  0  0  0  0  0
    2.8015   -3.0964    0.0871 H   0  0  0  0  0  0  0  0  0  0  0  0
    7.1061   -3.5471    0.3408 H   0  0  0  0  0  0  0  0  0  0  0  0
    2.6524   -5.5655    0.0923 H   0  0  0  0  0  0  0  0  0  0  0  0
    6.7393   -5.9941    0.3454 H   0  0  0  0  0  0  0  0  0  0  0  0
  1 15  1  0  0  0  0
  1 19  1  0  0  0  0
  2 20  2  0  0  0  0
  3 28  2  0  0  0  0
  4 11  1  0  0  0  0
  4 17  1  0  0  0  0
  4 18  1  0  0  0  0
  5 16  1  0  0  0  0
  5 19  2  0  0  0  0
  6 19  1  0  0  0  0
  6 20  1  0  0  0  0
  6 50  1  0  0  0  0
  7 25  1  0  0  0  0
  7 28  1  0  0  0  0
  7 57  1  0  0  0  0
  8  9  1  0  0  0  0
  8 29  1  0  0  0  0
  8 59  1  0  0  0  0
  9 30  2  0  0  0  0
 10 35  2  0  0  0  0
 10 36  1  0  0  0  0
 11 12  1  0  0  0  0
 11 13  1  0  0  0  0
 11 37  1  0  0  0  0
 12 14  1  0  0  0  0
 12 38  1  0  0  0  0
 12 39  1  0  0  0  0
 13 15  1  0  0  0  0
 13 40  1  0  0  0  0
 13 41  1  0  0  0  0
 14 16  1  0  0  0  0
 14 42  1  0  0  0  0
 14 43  1  0  0  0  0
 15 16  2  0  0  0  0
 17 44  1  0  0  0  0
 17 45  1  0  0  0  0
 17 46  1  0  0  0  0
 18 47  1  0  0  0  0
 18 48  1  0  0  0  0
 18 49  1  0  0  0  0
 20 21  1  0  0  0  0
 21 22  1  0  0  0  0
 21 24  2  0  0  0  0
 22 23  2  0  0  0  0
 22 51  1  0  0  0  0
 23 25  1  0  0  0  0
 23 26  1  0  0  0  0
 24 27  1  0  0  0  0
 24 52  1  0  0  0  0
 25 53  1  0  0  0  0
 25 54  1  0  0  0  0
 26 27  2  0  0  0  0
 26 55  1  0  0  0  0
 27 56  1  0  0  0  0
 28 29  1  0  0  0  0
 29 31  2  0  0  0  0
 30 31  1  0  0  0  0
 30 32  1  0  0  0  0
 31 58  1  0  0  0  0
 32 33  2  0  0  0  0
 32 34  1  0  0  0  0
 33 35  1  0  0  0  0
 33 60  1  0  0  0  0
 34 36  2  0  0  0  0
 34 61  1  0  0  0  0
 35 62  1  0  0  0  0
 36 63  1  0  0  0  0
M  END
> <PUBCHEM_COMPOUND_CID>
84973083

> <PUBCHEM_CONFORMER_RMSD>
1

> <PUBCHEM_CONFORMER_DIVERSEORDER>
1
121
52
85
289
96
202
104
252
198
201
93
189
113
56
97
209
71
262
126
54
89
116
16
130
59
12
150
255
111
271
64
207
199
302
131
123
141
284
192
115
20
86
112
151
95
107
35
166
132
254
230
187
122
206
80
63
65
138
48
34
205
197
282
134
169
105
58
118
285
139
305
225
79
263
124
297
260
164
101
83
182
42
244
156
75
108
102
87
183
133
217
179
91
191
128
237
148
291
67
17
142
261
99
303
218
117
22
272
110
257
155
281
103
70
290
173
221
154
14
74
51
194
92
90
269
286
213
144
256
78
6
94
170
41
100
162
287
251
77
30
178
239
55
137
13
294
15
233
180
243
276
227
27
298
109
19
145
246
186
247
81
24
203
181
127
231
275
72
84
229
28
241
259
195
216
188
266
38
165
9
223
193
106
222
82
248
161
210
62
120
33
147
60
88
226
185
211
238
172
224
157
37
61
270
160
196
280
32
114
140
7
177
184
293
265
268
125
135
40
212
31
258
296
220
232
279
152
163
228
129
240
278
149
44
68
146
300
273
215
158
25
235
264
277
53
50
119
76
301
250
39
234
167
200
10
47
299
3
295
45
214
136
236
249
274
304
175
245
21
292
171
98
46
219
57
143
26
288
204
159
190
69
29
283
242
18
5
73
36
253
168
49
267
66
2
4
11
43
8
208
153
176
174
23

> <PUBCHEM_MMFF94_PARTIAL_CHARGES>
47
1 -0.08
10 -0.62
11 0.27
13 0.18
14 0.18
15 -0.14
16 0.05
17 0.27
18 0.27
19 0.44
2 -0.57
20 0.54
21 0.09
22 -0.15
23 -0.14
24 -0.15
25 0.44
26 -0.15
27 -0.15
28 0.71
29 -0.24
3 -0.57
30 0.23
31 -0.15
32 0.05
33 -0.15
34 -0.15
35 0.16
36 0.16
4 -0.81
5 -0.57
50 0.37
51 0.15
52 0.15
55 0.15
56 0.15
57 0.37
58 0.15
59 0.27
6 -0.49
60 0.15
61 0.15
62 0.15
63 0.15
7 -0.73
8 0.3
9 -0.71

> <PUBCHEM_EFFECTIVE_ROTOR_COUNT>
9.8

> <PUBCHEM_PHARMACOPHORE_FEATURES>
13
1 10 acceptor
1 2 acceptor
1 3 acceptor
1 4 cation
1 6 donor
1 7 donor
1 8 donor
1 9 acceptor
5 1 5 15 16 19 rings
5 8 9 29 30 31 rings
6 10 32 33 34 35 36 rings
6 11 12 13 14 15 16 rings
6 21 22 23 24 26 27 rings

> <PUBCHEM_HEAVY_ATOM_COUNT>
36

> <PUBCHEM_ATOM_DEF_STEREO_COUNT>
1

> <PUBCHEM_ATOM_UDEF_STEREO_COUNT>
0

> <PUBCHEM_BOND_DEF_STEREO_COUNT>
0

> <PUBCHEM_BOND_UDEF_STEREO_COUNT>
0

> <PUBCHEM_ISOTOPIC_ATOM_COUNT>
0

> <PUBCHEM_COMPONENT_COUNT>
1

> <PUBCHEM_CACTVS_TAUTO_COUNT>
27

> <PUBCHEM_CONFORMER_ID>
0510961B00000001

> <PUBCHEM_MMFF94_ENERGY>
80.1977

> <PUBCHEM_FEATURE_SELFOVERLAP>
66.042

> <PUBCHEM_SHAPE_FINGERPRINT>
10049733 168 17988938763907153543
10075450 59 18058185933569003927
10622 236 18410014290926360348
11399510 152 17916004795326017320
11409948 35 18336543924459888335
117089 54 18337397049954609794
11761917 116 18265623083458173670
11801155 225 17765996490623079335
12559416 138 18342728599139021358
13008946 335 17338150153983889888
13553639 21 18334020513859457850
13553644 42 18187070785898840779
13947947 140 18335427846277757247
13989917 61 18335704978737251970
15019793 15 17976819784170018506
15264996 154 18335715939957840286
15320467 1 18338236089090697978
15467298 65 18125718143963393375
15538507 19 17834955275100660442
15569901 51 18409448064045072747
15728490 83 18337675191930976233
16728300 4 18341892987755535013
17492 89 18265616485997743432
19301676 85 17905035955314847045
19319366 153 18193846070685322932
23569914 152 18050817007192888125
23569943 247 18335985350682178587
24204213 148 18334588928212955116
24893989 43 17699859723744771262
260245 28 18340484581547885751
2835820 82 18409730703516699891
3886686 26 17691128136973810172
4046055 25 18337390426792746712
4073 2 17547857812331773921
44344687 77 18114192960249075067
4756088 132 17830445090466070610
56633871 153 18049170964607400952
6057620 51 18334866000605996334
6201320 221 18340192103571416311
6201460 15 18265619784221507430
6441014 3 18194962937911489626
7970288 3 18410573951061270832
9555976 147 17846226492933702153
9831232 110 18337949108208494037

> <PUBCHEM_SHAPE_MULTIPOLES>
698.11
22.85
10.4
0.97
30.72
1.78
-0.2
36.43
0.9
-12.3
0.81
-0.05
-0.54
-3.46

> <PUBCHEM_SHAPE_SELFOVERLAP>
1507.858

> <PUBCHEM_SHAPE_VOLUME>
386.7

> <PUBCHEM_COORDINATE_TYPE>
2
5
10

$$$$
84973084
  -OEChem-05102415113D

 58 62  0     1  0  0  0  0  0999 V2000
   -3.6157    1.5550    0.6486 S   0  0  0  0  0  0  0  0  0  0  0  0
   -4.3362   -2.7455   -1.0655 O   0  0  0  0  0  0  0  0  0  0  0  0
    3.4472   -3.4085    0.2607 O   0  0  0  0  0  0  0  0  0  0  0  0
    8.4079    2.6072   -1.5168 O   0  0  0  0  0  0  0  0  0  0  0  0
   -6.8228    3.9335   -0.0938 N   0  0  2  0  0  0  0  0  0  0  0  0
   -5.3741    0.0219   -0.4884 N   0  0  0  0  0  0  0  0  0  0  0  0
   -3.2055   -0.9403   -0.0558 N   0  0  0  0  0  0  0  0  0  0  0  0
    5.2015    0.3967   -0.0657 N   0  0  0  0  0  0  0  0  0  0  0  0
    1.7860   -2.2778    1.4188 N   0  0  0  0  0  0  0  0  0  0  0  0
    3.2618    0.1039    1.0093 N   0  0  0  0  0  0  0  0  0  0  0  0
    7.4685    4.5110   -0.6086 N   0  0  0  0  0  0  0  0  0  0  0  0
   -7.8433    2.8641   -0.0121 C   0  0  0  0  0  0  0  0  0  0  0  0
   -7.3533    1.5574   -0.6776 C   0  0  0  0  0  0  0  0  0  0  0  0
   -5.5976    3.5834    0.6657 C   0  0  0  0  0  0  0  0  0  0  0  0
   -5.9563    1.2504   -0.2710 C   0  0  0  0  0  0  0  0  0  0  0  0
   -5.1536    2.1999    0.3249 C   0  0  0  0  0  0  0  0  0  0  0  0
   -7.3663    5.2053    0.3809 C   0  0  0  0  0  0  0  0  0  0  0  0
   -4.1362    0.0647   -0.0402 C   0  0  0  0  0  0  0  0  0  0  0  0
   -3.3340   -2.2621   -0.5501 C   0  0  0  0  0  0  0  0  0  0  0  0
   -2.1246   -3.1206   -0.4494 C   0  0  0  0  0  0  0  0  0  0  0  0
   -0.0443   -3.6853    0.6419 C   0  0  0  0  0  0  0  0  0  0  0  0
    0.9671   -3.4277    1.7073 C   0  0  0  0  0  0  0  0  0  0  0  0
   -1.1794   -2.8800    0.5478 C   0  0  0  0  0  0  0  0  0  0  0  0
    4.1663    0.9921    0.6505 C   0  0  0  0  0  0  0  0  0  0  0  0
    3.7165   -1.0934    0.5178 C   0  0  0  0  0  0  0  0  0  0  0  0
    4.9096   -0.9407   -0.1484 C   0  0  0  0  0  0  0  0  0  0  0  0
   -1.9346   -4.1664   -1.3527 C   0  0  0  0  0  0  0  0  0  0  0  0
    0.1457   -4.7311   -0.2614 C   0  0  0  0  0  0  0  0  0  0  0  0
    6.2948    1.0978   -0.5704 C   0  0  0  0  0  0  0  0  0  0  0  0
    2.9755   -2.3668    0.7089 C   0  0  0  0  0  0  0  0  0  0  0  0
   -0.7994   -4.9715   -1.2590 C   0  0  0  0  0  0  0  0  0  0  0  0
    6.3637    2.4233   -0.3598 C   0  0  0  0  0  0  0  0  0  0  0  0
    4.2519    2.3989    0.8669 C   0  0  0  0  0  0  0  0  0  0  0  0
    5.3044    3.0874    0.3836 C   0  0  0  0  0  0  0  0  0  0  0  0
    7.5088    3.1637   -0.8871 C   0  0  0  0  0  0  0  0  0  0  0  0
   -8.7632    3.1768   -0.5215 H   0  0  0  0  0  0  0  0  0  0  0  0
   -8.1035    2.6703    1.0375 H   0  0  0  0  0  0  0  0  0  0  0  0
   -7.3852    1.6666   -1.7684 H   0  0  0  0  0  0  0  0  0  0  0  0
   -8.0198    0.7319   -0.4050 H   0  0  0  0  0  0  0  0  0  0  0  0
   -5.7831    3.6375    1.7465 H   0  0  0  0  0  0  0  0  0  0  0  0
   -4.8056    4.3003    0.4189 H   0  0  0  0  0  0  0  0  0  0  0  0
   -8.2281    5.5051   -0.2254 H   0  0  0  0  0  0  0  0  0  0  0  0
   -6.6210    6.0025    0.2831 H   0  0  0  0  0  0  0  0  0  0  0  0
   -7.6828    5.1544    1.4289 H   0  0  0  0  0  0  0  0  0  0  0  0
   -2.3057   -0.6479    0.3131 H   0  0  0  0  0  0  0  0  0  0  0  0
    0.4655   -3.2432    2.6644 H   0  0  0  0  0  0  0  0  0  0  0  0
    1.6129   -4.3013    1.8558 H   0  0  0  0  0  0  0  0  0  0  0  0
   -1.3151   -2.0953    1.2868 H   0  0  0  0  0  0  0  0  0  0  0  0
    5.5578   -1.6406   -0.6586 H   0  0  0  0  0  0  0  0  0  0  0  0
   -2.6558   -4.3675   -2.1405 H   0  0  0  0  0  0  0  0  0  0  0  0
    1.4701   -1.3691    1.7463 H   0  0  0  0  0  0  0  0  0  0  0  0
    1.0261   -5.3654   -0.2016 H   0  0  0  0  0  0  0  0  0  0  0  0
    7.0367    0.5224   -1.1118 H   0  0  0  0  0  0  0  0  0  0  0  0
   -0.6503   -5.7846   -1.9634 H   0  0  0  0  0  0  0  0  0  0  0  0
    3.4648    2.8989    1.4205 H   0  0  0  0  0  0  0  0  0  0  0  0
    5.3043    4.1491    0.5847 H   0  0  0  0  0  0  0  0  0  0  0  0
    6.7557    5.0130   -0.0980 H   0  0  0  0  0  0  0  0  0  0  0  0
    8.2267    5.1004   -0.9391 H   0  0  0  0  0  0  0  0  0  0  0  0
  1 16  1  0  0  0  0
  1 18  1  0  0  0  0
  2 19  2  0  0  0  0
  3 30  2  0  0  0  0
  4 35  2  0  0  0  0
  5 12  1  0  0  0  0
  5 14  1  0  0  0  0
  5 17  1  0  0  0  0
  6 15  1  0  0  0  0
  6 18  2  0  0  0  0
  7 18  1  0  0  0  0
  7 19  1  0  0  0  0
  7 45  1  0  0  0  0
  8 24  1  0  0  0  0
  8 26  1  0  0  0  0
  8 29  1  0  0  0  0
  9 22  1  0  0  0  0
  9 30  1  0  0  0  0
  9 51  1  0  0  0  0
 10 24  2  0  0  0  0
 10 25  1  0  0  0  0
 11 35  1  0  0  0  0
 11 57  1  0  0  0  0
 11 58  1  0  0  0  0
 12 13  1  0  0  0  0
 12 36  1  0  0  0  0
 12 37  1  0  0  0  0
 13 15  1  0  0  0  0
 13 38  1  0  0  0  0
 13 39  1  0  0  0  0
 14 16  1  0  0  0  0
 14 40  1  0  0  0  0
 14 41  1  0  0  0  0
 15 16  2  0  0  0  0
 17 42  1  0  0  0  0
 17 43  1  0  0  0  0
 17 44  1  0  0  0  0
 19 20  1  0  0  0  0
 20 23  1  0  0  0  0
 20 27  2  0  0  0  0
 21 22  1  0  0  0  0
 21 23  2  0  0  0  0
 21 28  1  0  0  0  0
 22 46  1  0  0  0  0
 22 47  1  0  0  0  0
 23 48  1  0  0  0  0
 24 33  1  0  0  0  0
 25 26  2  0  0  0  0
 25 30  1  0  0  0  0
 26 49  1  0  0  0  0
 27 31  1  0  0  0  0
 27 50  1  0  0  0  0
 28 31  2  0  0  0  0
 28 52  1  0  0  0  0
 29 32  2  0  0  0  0
 29 53  1  0  0  0  0
 31 54  1  0  0  0  0
 32 34  1  0  0  0  0
 32 35  1  0  0  0  0
 33 34  2  0  0  0  0
 33 55  1  0  0  0  0
 34 56  1  0  0  0  0
M  END
> <PUBCHEM_COMPOUND_CID>
84973084

> <PUBCHEM_CONFORMER_RMSD>
1.2

> <PUBCHEM_CONFORMER_DIVERSEORDER>
1
87
27
91
15
28
36
14
121
37
144
114
96
54
152
92
81
42
142
30
154
122
78
39
71
83
58
143
85
86
177
147
109
49
21
125
136
44
22
123
161
70
116
64
175
167
166
182
164
163
112
74
20
43
153
48
113
35
151
176
157
65
16
174
94
26
100
101
105
41
53
179
72
115
108
55
89
50
104
134
183
98
24
120
29
60
138
47
80
181
172
17
140
19
88
67
51
150
160
69
137
11
159
124
169
156
90
118
56
133
117
33
148
102
66
45
79
141
178
38
77
63
135
131
31
170
95
126
32
57
129
180
8
34
13
132
173
40
168
23
9
46
130
52
103
4
75
119
93
128
158
97
110
73
171
68
76
145
155
139
82
7
62
18
106
127
84
61
162
10
3
111
99
107
5
12
25
149
59
2
165
6
146

> <PUBCHEM_MMFF94_PARTIAL_CHARGES>
47
1 -0.08
10 -0.57
11 -0.8
12 0.27
13 0.18
14 0.45
15 0.05
16 -0.14
17 0.27
18 0.44
19 0.54
2 -0.57
20 0.09
21 -0.14
22 0.44
23 -0.15
24 0.14
25 0.14
26 -0.3
27 -0.15
28 -0.15
29 -0.18
3 -0.57
30 0.72
31 -0.15
32 0.01
33 -0.11
34 -0.15
35 0.62
4 -0.57
45 0.37
48 0.15
49 0.15
5 -0.81
50 0.15
51 0.37
52 0.15
53 0.15
54 0.15
55 0.15
56 0.15
57 0.37
58 0.37
6 -0.57
7 -0.49
8 0.33
9 -0.73

> <PUBCHEM_EFFECTIVE_ROTOR_COUNT>
8.8

> <PUBCHEM_PHARMACOPHORE_FEATURES>
13
1 11 donor
1 2 acceptor
1 3 acceptor
1 4 acceptor
1 5 cation
1 7 donor
1 9 donor
3 8 10 24 cation
5 1 6 15 16 18 rings
5 8 10 24 25 26 rings
6 20 21 23 27 28 31 rings
6 5 12 13 14 15 16 rings
6 8 24 29 32 33 34 rings

> <PUBCHEM_HEAVY_ATOM_COUNT>
35

> <PUBCHEM_ATOM_DEF_STEREO_COUNT>
0

> <PUBCHEM_ATOM_UDEF_STEREO_COUNT>
0

> <PUBCHEM_BOND_DEF_STEREO_COUNT>
0

> <PUBCHEM_BOND_UDEF_STEREO_COUNT>
0

> <PUBCHEM_ISOTOPIC_ATOM_COUNT>
0

> <PUBCHEM_COMPONENT_COUNT>
1

> <PUBCHEM_CACTVS_TAUTO_COUNT>
12

> <PUBCHEM_CONFORMER_ID>
0510961C00000001

> <PUBCHEM_MMFF94_ENERGY>
81.1557

> <PUBCHEM_FEATURE_SELFOVERLAP>
66.158

> <PUBCHEM_SHAPE_FINGERPRINT>
10556698 54 17773854549912488241
10673678 19 18269554945264836779
10864689 126 18342737442671875136
10917259 128 18195230326192087720
10917259 69 18409731777727742980
11374522 174 18336275552315646213
11374522 363 17974276634627512212
11476731 99 18127123307065630208
11479125 193 18410295787725444345
11505856 67 18341320198154344959
11761917 142 18052808437151294016
11828042 163 18339931412252180172
11828042 200 18125704920487089583
11828042 53 18265621073466973492
1200032 147 18040998440959380568
12124843 1 18131914857846656740
13008946 62 17916870102692434509
13944108 23 18052818044443930433
14026016 13 18411985750225343769
14251764 75 18409446955916369899
14664723 55 18342463590786899633
14790565 3 18412821365956128483
15001296 14 18336261228741547587
15064981 113 17560810935485286622
15145343 54 18334296449076429413
15198563 99 17840294846841193911
15400415 2 18412259519503314713
155225 6 18338237059858646089
15979999 66 17264413137237978815
15980000 95 17617093604097971178
16067689 134 18409454678321030660
17899979 129 18338520729162426282
18339144 43 17269495140770446377
19053607 189 18411970373883325320
19302320 297 18121777231837145971
19309040 13 18343862221228250646
20691028 202 18410849962570022913
20766409 102 18410855474485135701
21792965 106 18195521726859298696
23516275 100 17046245252604883697
23523788 1 8717681784582227910
23576562 1 17913207564572989503
3388396 114 16969706074914531324
42767 28 18059859501850726192
4366758 26 18267026063931189497
437795 171 18116141182509864357
4760202 70 18271231748516892997
5265222 85 18412825811394869113
53794403 172 18196933263028136375
5951187 136 18199753548417328950
59520647 147 18409174285470772184
6036956 94 18268716009361334281
6058803 2 18192685973579495186
6673363 416 17978231882831814911
7288768 16 17822288028342119787
7970288 3 9907491466371984611

> <PUBCHEM_SHAPE_MULTIPOLES>
671.66
24.36
8.69
1.14
1.8
2.43
-0.03
-46.67
5.47
-2.85
1.11
0.73
0.61
-3.88

> <PUBCHEM_SHAPE_SELFOVERLAP>
1460.816

> <PUBCHEM_SHAPE_VOLUME>
368.6

> <PUBCHEM_COORDINATE_TYPE>
2
5
10

$$$$
56597186
  -OEChem-05102415123D

 71 77  0     1  0  0  0  0  0999 V2000
   -3.4329   -0.2585    1.7106 S   0  0  0  0  0  0  0  0  0  0  0  0
    3.2896    2.0736   -0.8659 O   0  0  0  0  0  0  0  0  0  0  0  0
   -2.8508    2.4809   -2.0455 O   0  0  0  0  0  0  0  0  0  0  0  0
    2.6380   -5.0400   -0.9246 O   0  0  0  0  0  0  0  0  0  0  0  0
    2.4220    2.3273    1.2801 N   0  0  0  0  0  0  0  0  0  0  0  0
   -6.7422   -2.5729    1.2791 N   0  0  2  0  0  0  0  0  0  0  0  0
    3.4867   -1.9312    0.4411 N   0  0  0  0  0  0  0  0  0  0  0  0
    4.1920   -0.1901    1.4894 N   0  0  0  0  0  0  0  0  0  0  0  0
   -2.4785    1.5835    0.1023 N   0  0  0  0  0  0  0  0  0  0  0  0
   -4.3432    0.2600   -0.6636 N   0  0  0  0  0  0  0  0  0  0  0  0
    4.2721   -1.5156    1.4480 N   0  0  0  0  0  0  0  0  0  0  0  0
    2.5505   -3.6471   -0.8866 N   0  0  0  0  0  0  0  0  0  0  0  0
    3.4921   -5.5199    0.0703 N   0  0  0  0  0  0  0  0  0  0  0  0
    4.7672   -4.3764    1.7534 N   0  0  0  0  0  0  0  0  0  0  0  0
    2.1090    3.7565    1.1704 C   0  0  2  0  0  0  0  0  0  0  0  0
    1.8124    4.1813    2.6146 C   0  0  0  0  0  0  0  0  0  0  0  0
    1.2673    2.9117    3.2606 C   0  0  0  0  0  0  0  0  0  0  0  0
    2.0935    1.8129    2.6098 C   0  0  0  0  0  0  0  0  0  0  0  0
    0.9598    4.0694    0.2290 C   0  0  0  0  0  0  0  0  0  0  0  0
    3.0218    1.6221    0.2452 C   0  0  0  0  0  0  0  0  0  0  0  0
   -0.0731    3.1478    0.0587 C   0  0  0  0  0  0  0  0  0  0  0  0
    0.9373    5.2787   -0.4658 C   0  0  0  0  0  0  0  0  0  0  0  0
    3.3454    0.2109    0.4934 C   0  0  0  0  0  0  0  0  0  0  0  0
   -1.1288    3.4354   -0.8063 C   0  0  0  0  0  0  0  0  0  0  0  0
   -0.1185    5.5663   -1.3311 C   0  0  0  0  0  0  0  0  0  0  0  0
   -1.1515    4.6446   -1.5014 C   0  0  0  0  0  0  0  0  0  0  0  0
    2.8834   -0.8865   -0.1888 C   0  0  0  0  0  0  0  0  0  0  0  0
   -6.6547   -2.7128   -0.1921 C   0  0  0  0  0  0  0  0  0  0  0  0
   -6.2286   -1.3879   -0.8656 C   0  0  0  0  0  0  0  0  0  0  0  0
   -5.4204   -2.2743    1.8825 C   0  0  0  0  0  0  0  0  0  0  0  0
   -5.0934   -0.7656   -0.1338 C   0  0  0  0  0  0  0  0  0  0  0  0
   -4.7485   -1.1685    1.1388 C   0  0  0  0  0  0  0  0  0  0  0  0
   -2.2304    2.4539   -0.9880 C   0  0  0  0  0  0  0  0  0  0  0  0
    1.9801   -1.0020   -1.3087 C   0  0  0  0  0  0  0  0  0  0  0  0
   -3.4328    0.6081    0.2222 C   0  0  0  0  0  0  0  0  0  0  0  0
   -7.3124   -3.7775    1.8807 C   0  0  0  0  0  0  0  0  0  0  0  0
    3.3441   -3.2930    0.1227 C   0  0  0  0  0  0  0  0  0  0  0  0
    2.4777   -0.9776   -2.6115 C   0  0  0  0  0  0  0  0  0  0  0  0
    0.6096   -1.1381   -1.0880 C   0  0  0  0  0  0  0  0  0  0  0  0
    3.9132   -4.4254    0.7014 C   0  0  0  0  0  0  0  0  0  0  0  0
    1.6049   -1.0891   -3.6938 C   0  0  0  0  0  0  0  0  0  0  0  0
   -0.2633   -1.2497   -2.1702 C   0  0  0  0  0  0  0  0  0  0  0  0
    0.2343   -1.2251   -3.4732 C   0  0  0  0  0  0  0  0  0  0  0  0
    3.0096    4.2611    0.7976 H   0  0  0  0  0  0  0  0  0  0  0  0
    1.1237    5.0272    2.7021 H   0  0  0  0  0  0  0  0  0  0  0  0
    2.7502    4.4568    3.1138 H   0  0  0  0  0  0  0  0  0  0  0  0
    1.3631    2.9157    4.3500 H   0  0  0  0  0  0  0  0  0  0  0  0
    0.2062    2.7880    3.0163 H   0  0  0  0  0  0  0  0  0  0  0  0
    3.0330    1.6555    3.1504 H   0  0  0  0  0  0  0  0  0  0  0  0
    1.5558    0.8630    2.5395 H   0  0  0  0  0  0  0  0  0  0  0  0
   -0.0308    2.1966    0.5780 H   0  0  0  0  0  0  0  0  0  0  0  0
    1.7351    6.0056   -0.3397 H   0  0  0  0  0  0  0  0  0  0  0  0
   -0.1368    6.5086   -1.8708 H   0  0  0  0  0  0  0  0  0  0  0  0
   -1.9672    4.8907   -2.1761 H   0  0  0  0  0  0  0  0  0  0  0  0
   -5.9423   -3.5072   -0.4539 H   0  0  0  0  0  0  0  0  0  0  0  0
   -7.6288   -3.0023   -0.6051 H   0  0  0  0  0  0  0  0  0  0  0  0
   -7.0727   -0.6875   -0.8645 H   0  0  0  0  0  0  0  0  0  0  0  0
   -5.9522   -1.5762   -1.9086 H   0  0  0  0  0  0  0  0  0  0  0  0
   -4.7731   -3.1608    1.8558 H   0  0  0  0  0  0  0  0  0  0  0  0
   -5.5617   -1.9862    2.9310 H   0  0  0  0  0  0  0  0  0  0  0  0
   -1.9184    1.6890    0.9428 H   0  0  0  0  0  0  0  0  0  0  0  0
   -8.3201   -3.9611    1.4919 H   0  0  0  0  0  0  0  0  0  0  0  0
   -7.4116   -3.6559    2.9651 H   0  0  0  0  0  0  0  0  0  0  0  0
   -6.7008   -4.6660    1.6868 H   0  0  0  0  0  0  0  0  0  0  0  0
    3.5434   -0.8717   -2.8004 H   0  0  0  0  0  0  0  0  0  0  0  0
    0.2051   -1.1561   -0.0787 H   0  0  0  0  0  0  0  0  0  0  0  0
    1.9923   -1.0698   -4.7082 H   0  0  0  0  0  0  0  0  0  0  0  0
   -1.3308   -1.3536   -1.9981 H   0  0  0  0  0  0  0  0  0  0  0  0
   -0.4456   -1.3113   -4.3156 H   0  0  0  0  0  0  0  0  0  0  0  0
    5.1684   -5.2171    2.1570 H   0  0  0  0  0  0  0  0  0  0  0  0
    5.0535   -3.5083    2.1956 H   0  0  0  0  0  0  0  0  0  0  0  0
  1 32  1  0  0  0  0
  1 35  1  0  0  0  0
  2 20  2  0  0  0  0
  3 33  2  0  0  0  0
  4 12  1  0  0  0  0
  4 13  1  0  0  0  0
  5 15  1  0  0  0  0
  5 18  1  0  0  0  0
  5 20  1  0  0  0  0
  6 28  1  0  0  0  0
  6 30  1  0  0  0  0
  6 36  1  0  0  0  0
  7 11  1  0  0  0  0
  7 27  1  0  0  0  0
  7 37  1  0  0  0  0
  8 11  2  0  0  0  0
  8 23  1  0  0  0  0
  9 33  1  0  0  0  0
  9 35  1  0  0  0  0
  9 61  1  0  0  0  0
 10 31  1  0  0  0  0
 10 35  2  0  0  0  0
 12 37  2  0  0  0  0
 13 40  2  0  0  0  0
 14 40  1  0  0  0  0
 14 70  1  0  0  0  0
 14 71  1  0  0  0  0
 15 16  1  0  0  0  0
 15 19  1  0  0  0  0
 15 44  1  0  0  0  0
 16 17  1  0  0  0  0
 16 45  1  0  0  0  0
 16 46  1  0  0  0  0
 17 18  1  0  0  0  0
 17 47  1  0  0  0  0
 17 48  1  0  0  0  0
 18 49  1  0  0  0  0
 18 50  1  0  0  0  0
 19 21  2  0  0  0  0
 19 22  1  0  0  0  0
 20 23  1  0  0  0  0
 21 24  1  0  0  0  0
 21 51  1  0  0  0  0
 22 25  2  0  0  0  0
 22 52  1  0  0  0  0
 23 27  2  0  0  0  0
 24 26  2  0  0  0  0
 24 33  1  0  0  0  0
 25 26  1  0  0  0  0
 25 53  1  0  0  0  0
 26 54  1  0  0  0  0
 27 34  1  0  0  0  0
 28 29  1  0  0  0  0
 28 55  1  0  0  0  0
 28 56  1  0  0  0  0
 29 31  1  0  0  0  0
 29 57  1  0  0  0  0
 29 58  1  0  0  0  0
 30 32  1  0  0  0  0
 30 59  1  0  0  0  0
 30 60  1  0  0  0  0
 31 32  2  0  0  0  0
 34 38  2  0  0  0  0
 34 39  1  0  0  0  0
 36 62  1  0  0  0  0
 36 63  1  0  0  0  0
 36 64  1  0  0  0  0
 37 40  1  0  0  0  0
 38 41  1  0  0  0  0
 38 65  1  0  0  0  0
 39 42  2  0  0  0  0
 39 66  1  0  0  0  0
 41 43  2  0  0  0  0
 41 67  1  0  0  0  0
 42 43  1  0  0  0  0
 42 68  1  0  0  0  0
 43 69  1  0  0  0  0
M  END
> <PUBCHEM_COMPOUND_CID>
56597186

> <PUBCHEM_CONFORMER_RMSD>
1.2

> <PUBCHEM_CONFORMER_DIVERSEORDER>
1
196
159
72
77
231
219
96
23
27
279
24
193
136
281
89
261
174
282
47
44
86
223
248
148
31
25
156
29
257
13
254
173
243
153
283
35
109
207
120
184
163
90
149
275
61
112
202
111
236
241
274
201
182
81
256
49
252
33
268
101
93
116
45
14
54
168
206
82
185
145
158
40
88
263
129
259
192
135
57
91
117
52
194
284
280
113
36
104
285
39
240
200
221
175
142
67
3
41
21
105
115
102
271
76
278
198
69
2
127
186
287
183
58
98
55
246
197
110
92
188
133
126
180
94
122
124
108
244
85
63
131
235
228
162
152
272
247
83
73
37
60
155
51
224
48
222
270
203
190
114
220
95
97
132
56
18
218
262
68
242
22
169
255
177
130
134
189
34
215
232
225
78
167
176
233
128
212
157
106
253
216
46
161
227
150
151
210
26
75
84
171
229
20
178
265
137
214
209
237
32
195
239
234
199
165
12
264
140
286
147
15
28
154
87
258
6
213
245
249
43
7
65
5
16
10
230
238
125
71
267
103
276
59
42
70
64
99
226
144
277
62
170
80
251
217
205
4
260
211
143
119
160
11
107
273
8
138
288
269
146
187
123
79
50
191
141
74
121
66
250
9
204
166
164
118
139
208
172
53
266
30
19
181
17
179
100
38

> <PUBCHEM_MMFF94_PARTIAL_CHARGES>
53
1 -0.08
10 -0.57
11 -0.42
12 -0.41
13 -0.41
14 -0.88
15 0.44
18 0.3
19 -0.14
2 -0.57
20 0.72
21 -0.15
22 -0.15
23 0.14
24 0.09
25 -0.15
26 -0.15
27 -0.2
28 0.27
29 0.18
3 -0.57
30 0.45
31 0.05
32 -0.14
33 0.54
34 0.05
35 0.44
36 0.27
37 0.21
38 -0.15
39 -0.15
4 0.24
40 0.37
41 -0.15
42 -0.15
43 -0.15
5 -0.66
51 0.15
52 0.15
53 0.15
54 0.15
6 -0.81
61 0.37
65 0.15
66 0.15
67 0.15
68 0.15
69 0.15
7 0.65
70 0.4
71 0.4
8 -0.23
9 -0.49

> <PUBCHEM_EFFECTIVE_ROTOR_COUNT>
9.8

> <PUBCHEM_PHARMACOPHORE_FEATURES>
14
1 14 donor
1 2 acceptor
1 3 acceptor
1 6 cation
1 9 donor
3 13 14 40 cation
3 7 12 37 cation
5 1 10 31 32 35 rings
5 4 12 13 37 40 rings
5 5 15 16 17 18 rings
5 7 8 11 23 27 rings
6 19 21 22 24 25 26 rings
6 34 38 39 41 42 43 rings
6 6 28 29 30 31 32 rings

> <PUBCHEM_HEAVY_ATOM_COUNT>
43

> <PUBCHEM_ATOM_DEF_STEREO_COUNT>
1

> <PUBCHEM_ATOM_UDEF_STEREO_COUNT>
0

> <PUBCHEM_BOND_DEF_STEREO_COUNT>
0

> <PUBCHEM_BOND_UDEF_STEREO_COUNT>
0

> <PUBCHEM_ISOTOPIC_ATOM_COUNT>
0

> <PUBCHEM_COMPONENT_COUNT>
1

> <PUBCHEM_CACTVS_TAUTO_COUNT>
6

> <PUBCHEM_CONFORMER_ID>
035F9AC200000001

> <PUBCHEM_MMFF94_ENERGY>
107.2625

> <PUBCHEM_FEATURE_SELFOVERLAP>
71.184

> <PUBCHEM_SHAPE_FINGERPRINT>
10462674 369 18339366262584744614
10838868 158 17553481375625007846
11093857 51 17974019632395189076
11763715 3 18190203216509763631
11828532 37 18188491268863923149
12608794 3 17765959030466073200
12786520 15 17840057085951197227
12977781 61 18189875635570742669
14004853 49 17117198946080185217
14114206 34 13913752735302606174
15419008 42 18044629088826970717
19315092 285 17988921214991716563
1979834 28 18049998089535852617
20609170 114 17902211336420458914
21133410 32 16763154642541133446
4461854 278 17905042904213645240
45266715 3 16466414990998559237
4616759 239 17545581376480340562
469060 322 18053910048479312343
49967989 163 17475525980131645582
57527452 28 18056495065200652416
57527585 103 17624148095880111804
86090 222 18124615316150462885
9831232 110 18191028001272005579

> <PUBCHEM_SHAPE_MULTIPOLES>
821.35
12.54
8.8
3.06
31.87
0.34
0.81
-15.59
-6.97
-9.81
-0.4
-1.18
0.27
2.74

> <PUBCHEM_SHAPE_SELFOVERLAP>
1803.887

> <PUBCHEM_SHAPE_VOLUME>
446.6

> <PUBCHEM_COORDINATE_TYPE>
2
5
10

$$$$
56597187
  -OEChem-05102415123D

 64 69  0     1  0  0  0  0  0999 V2000
   -5.5198   -0.2189    1.3952 S   0  0  0  0  0  0  0  0  0  0  0  0
    2.8669   -1.6137    1.8380 O   0  0  0  0  0  0  0  0  0  0  0  0
   -1.9120   -1.1506   -1.4451 O   0  0  0  0  0  0  0  0  0  0  0  0
    4.3709    5.1515    1.1524 O   0  0  0  0  0  0  0  0  0  0  0  0
    2.9081   -2.4202   -0.3461 N   0  0  0  0  0  0  0  0  0  0  0  0
   -7.6302    2.9627    0.0105 N   0  0  2  0  0  0  0  0  0  0  0  0
    4.6428   -0.1231   -0.8140 N   0  0  0  0  0  0  0  0  0  0  0  0
    4.4172    1.8238    0.0725 N   0  0  0  0  0  0  0  0  0  0  0  0
   -3.3316   -1.3017    0.4307 N   0  0  0  0  0  0  0  0  0  0  0  0
   -4.4056    0.4319   -0.8565 N   0  0  0  0  0  0  0  0  0  0  0  0
    5.0292    1.1443   -0.9108 N   0  0  0  0  0  0  0  0  0  0  0  0
    3.9666    3.8189    1.2536 N   0  0  0  0  0  0  0  0  0  0  0  0
    5.2589    5.3308    0.0899 N   0  0  0  0  0  0  0  0  0  0  0  0
    6.1507    3.7792   -1.5112 N   0  0  0  0  0  0  0  0  0  0  0  0
    2.3391   -3.7403   -0.0520 C   0  0  2  0  0  0  0  0  0  0  0  0
    2.5819   -4.5416   -1.3376 C   0  0  0  0  0  0  0  0  0  0  0  0
    2.5681   -3.4808   -2.4334 C   0  0  0  0  0  0  0  0  0  0  0  0
    3.2359   -2.2883   -1.7660 C   0  0  0  0  0  0  0  0  0  0  0  0
    0.8732   -3.7103    0.3415 C   0  0  0  0  0  0  0  0  0  0  0  0
    3.1506   -1.4830    0.6494 C   0  0  0  0  0  0  0  0  0  0  0  0
    0.0318   -2.7251   -0.1754 C   0  0  0  0  0  0  0  0  0  0  0  0
    0.3674   -4.6692    1.2192 C   0  0  0  0  0  0  0  0  0  0  0  0
    3.7817   -0.2202    0.2435 C   0  0  0  0  0  0  0  0  0  0  0  0
   -1.3153   -2.6985    0.1857 C   0  0  0  0  0  0  0  0  0  0  0  0
   -0.9799   -4.6429    1.5801 C   0  0  0  0  0  0  0  0  0  0  0  0
   -7.3887    2.7072   -1.4276 C   0  0  0  0  0  0  0  0  0  0  0  0
   -5.9376    2.2414   -1.6873 C   0  0  0  0  0  0  0  0  0  0  0  0
   -7.5026    1.7247    0.8177 C   0  0  0  0  0  0  0  0  0  0  0  0
   -1.8211   -3.6574    1.0635 C   0  0  0  0  0  0  0  0  0  0  0  0
   -5.5291    1.2112   -0.6956 C   0  0  0  0  0  0  0  0  0  0  0  0
   -6.2464    1.0014    0.4630 C   0  0  0  0  0  0  0  0  0  0  0  0
    3.6234    1.0131    0.8240 C   0  0  0  0  0  0  0  0  0  0  0  0
   -2.2121   -1.6489   -0.3656 C   0  0  0  0  0  0  0  0  0  0  0  0
   -4.3006   -0.3645    0.1874 C   0  0  0  0  0  0  0  0  0  0  0  0
   -8.9461    3.5668    0.2153 C   0  0  0  0  0  0  0  0  0  0  0  0
    2.8230    1.4703    1.9743 C   0  0  0  0  0  0  0  0  0  0  0  0
    4.6051    3.2031    0.2602 C   0  0  0  0  0  0  0  0  0  0  0  0
    5.3862    4.1171   -0.4435 C   0  0  0  0  0  0  0  0  0  0  0  0
    2.9130   -4.1657    0.7813 H   0  0  0  0  0  0  0  0  0  0  0  0
    1.8539   -5.3393   -1.5146 H   0  0  0  0  0  0  0  0  0  0  0  0
    3.5795   -4.9977   -1.3004 H   0  0  0  0  0  0  0  0  0  0  0  0
    3.0923   -3.8000   -3.3386 H   0  0  0  0  0  0  0  0  0  0  0  0
    1.5364   -3.2368   -2.7107 H   0  0  0  0  0  0  0  0  0  0  0  0
    2.8750   -1.3386   -2.1706 H   0  0  0  0  0  0  0  0  0  0  0  0
    4.3238   -2.3550   -1.8734 H   0  0  0  0  0  0  0  0  0  0  0  0
    0.4136   -1.9722   -0.8590 H   0  0  0  0  0  0  0  0  0  0  0  0
    1.0121   -5.4441    1.6254 H   0  0  0  0  0  0  0  0  0  0  0  0
   -1.3750   -5.3948    2.2569 H   0  0  0  0  0  0  0  0  0  0  0  0
   -7.5580    3.6214   -2.0097 H   0  0  0  0  0  0  0  0  0  0  0  0
   -8.0929    1.9505   -1.7998 H   0  0  0  0  0  0  0  0  0  0  0  0
   -5.2569    3.0973   -1.6044 H   0  0  0  0  0  0  0  0  0  0  0  0
   -5.8536    1.8453   -2.7050 H   0  0  0  0  0  0  0  0  0  0  0  0
   -8.3557    1.0568    0.6403 H   0  0  0  0  0  0  0  0  0  0  0  0
   -7.4921    1.9899    1.8816 H   0  0  0  0  0  0  0  0  0  0  0  0
   -2.8692   -3.6949    1.3442 H   0  0  0  0  0  0  0  0  0  0  0  0
   -9.0190    4.5196   -0.3204 H   0  0  0  0  0  0  0  0  0  0  0  0
   -9.1059    3.7898    1.2760 H   0  0  0  0  0  0  0  0  0  0  0  0
   -9.7581    2.9154   -0.1274 H   0  0  0  0  0  0  0  0  0  0  0  0
   -3.4479   -1.7639    1.3275 H   0  0  0  0  0  0  0  0  0  0  0  0
    3.4569    1.8400    2.7866 H   0  0  0  0  0  0  0  0  0  0  0  0
    2.0952    2.2350    1.6840 H   0  0  0  0  0  0  0  0  0  0  0  0
    2.2284    0.6567    2.3997 H   0  0  0  0  0  0  0  0  0  0  0  0
    6.7112    4.4652   -2.0071 H   0  0  0  0  0  0  0  0  0  0  0  0
    6.2084    2.8329   -1.8749 H   0  0  0  0  0  0  0  0  0  0  0  0
  1 31  1  0  0  0  0
  1 34  1  0  0  0  0
  2 20  2  0  0  0  0
  3 33  2  0  0  0  0
  4 12  1  0  0  0  0
  4 13  1  0  0  0  0
  5 15  1  0  0  0  0
  5 18  1  0  0  0  0
  5 20  1  0  0  0  0
  6 26  1  0  0  0  0
  6 28  1  0  0  0  0
  6 35  1  0  0  0  0
  7 11  2  0  0  0  0
  7 23  1  0  0  0  0
  8 11  1  0  0  0  0
  8 32  1  0  0  0  0
  8 37  1  0  0  0  0
  9 33  1  0  0  0  0
  9 34  1  0  0  0  0
  9 59  1  0  0  0  0
 10 30  1  0  0  0  0
 10 34  2  0  0  0  0
 12 37  2  0  0  0  0
 13 38  2  0  0  0  0
 14 38  1  0  0  0  0
 14 63  1  0  0  0  0
 14 64  1  0  0  0  0
 15 16  1  0  0  0  0
 15 19  1  0  0  0  0
 15 39  1  0  0  0  0
 16 17  1  0  0  0  0
 16 40  1  0  0  0  0
 16 41  1  0  0  0  0
 17 18  1  0  0  0  0
 17 42  1  0  0  0  0
 17 43  1  0  0  0  0
 18 44  1  0  0  0  0
 18 45  1  0  0  0  0
 19 21  2  0  0  0  0
 19 22  1  0  0  0  0
 20 23  1  0  0  0  0
 21 24  1  0  0  0  0
 21 46  1  0  0  0  0
 22 25  2  0  0  0  0
 22 47  1  0  0  0  0
 23 32  2  0  0  0  0
 24 29  2  0  0  0  0
 24 33  1  0  0  0  0
 25 29  1  0  0  0  0
 25 48  1  0  0  0  0
 26 27  1  0  0  0  0
 26 49  1  0  0  0  0
 26 50  1  0  0  0  0
 27 30  1  0  0  0  0
 27 51  1  0  0  0  0
 27 52  1  0  0  0  0
 28 31  1  0  0  0  0
 28 53  1  0  0  0  0
 28 54  1  0  0  0  0
 29 55  1  0  0  0  0
 30 31  2  0  0  0  0
 32 36  1  0  0  0  0
 35 56  1  0  0  0  0
 35 57  1  0  0  0  0
 35 58  1  0  0  0  0
 36 60  1  0  0  0  0
 36 61  1  0  0  0  0
 36 62  1  0  0  0  0
 37 38  1  0  0  0  0
M  END
> <PUBCHEM_COMPOUND_CID>
56597187

> <PUBCHEM_CONFORMER_RMSD>
1.4

> <PUBCHEM_CONFORMER_DIVERSEORDER>
6
87
127
129
85
53
70
45
28
50
54
4
31
48
112
14
55
37
42
118
65
94
12
57
81
72
110
66
79
32
51
49
119
80
52
121
17
97
88
11
75
124
63
30
74
36
103
100
68
69
3
39
1
111
46
96
113
38
117
24
35
84
128
82
59
64
15
13
34
104
98
20
7
21
125
5
23
102
41
60
106
95
78
58
26
101
109
71
99
92
89
76
91
10
73
16
2
56
67
8
62
22
93
116
122
120
29
123
18
43
107
47
61
105
27
115
33
9
86
90
108
40
25
44
126
114
19
83
77

> <PUBCHEM_MMFF94_PARTIAL_CHARGES>
43
1 -0.08
10 -0.57
11 -0.42
12 -0.41
13 -0.41
14 -0.88
15 0.44
18 0.3
19 -0.14
2 -0.57
20 0.72
21 -0.15
22 -0.15
23 0.14
24 0.09
25 -0.15
26 0.27
27 0.18
28 0.45
29 -0.15
3 -0.57
30 0.05
31 -0.14
32 -0.33
33 0.54
34 0.44
35 0.27
36 0.18
37 0.21
38 0.37
4 0.24
46 0.15
47 0.15
48 0.15
5 -0.66
55 0.15
59 0.37
6 -0.81
63 0.4
64 0.4
7 -0.23
8 0.65
9 -0.49

> <PUBCHEM_EFFECTIVE_ROTOR_COUNT>
8.8

> <PUBCHEM_PHARMACOPHORE_FEATURES>
13
1 14 donor
1 2 acceptor
1 3 acceptor
1 6 cation
1 9 donor
3 13 14 38 cation
3 8 12 37 cation
5 1 10 30 31 34 rings
5 4 12 13 37 38 rings
5 5 15 16 17 18 rings
5 7 8 11 23 32 rings
6 19 21 22 24 25 29 rings
6 6 26 27 28 30 31 rings

> <PUBCHEM_HEAVY_ATOM_COUNT>
38

> <PUBCHEM_ATOM_DEF_STEREO_COUNT>
1

> <PUBCHEM_ATOM_UDEF_STEREO_COUNT>
0

> <PUBCHEM_BOND_DEF_STEREO_COUNT>
0

> <PUBCHEM_BOND_UDEF_STEREO_COUNT>
0

> <PUBCHEM_ISOTOPIC_ATOM_COUNT>
0

> <PUBCHEM_COMPONENT_COUNT>
1

> <PUBCHEM_CACTVS_TAUTO_COUNT>
6

> <PUBCHEM_CONFORMER_ID>
035F9AC300000006

> <PUBCHEM_MMFF94_ENERGY>
88.6753

> <PUBCHEM_FEATURE_SELFOVERLAP>
66.108

> <PUBCHEM_SHAPE_FINGERPRINT>
10675989 125 18339920428823766857
10864689 126 18268998768549187584
11374522 174 18261122905975719973
11386260 185 18056197964773859687
11505856 67 18124304167588459775
11828422 8 18340216267052421830
13944108 23 18341051818110315656
14068700 686 18267869552753610215
14251764 75 18409164454321098009
15198563 99 17264685206315147102
15400415 2 18337106881816626233
15530120 55 17703493464120481911
15773879 134 18411692189289387469
16096371 109 18115860794713013659
16988056 13 18269277855386503414
19053607 189 18269825561973243328
19304152 47 17681284578774235274
19309040 13 18272367615534185831
20691028 202 18335983180890756741
21033648 29 17968669224579340503
21049683 118 17530685373214493187
21987440 362 18266182910563890204
22122407 14 18124886647295226699
23569914 152 18057913289709082036
23569914 2 16555069116875334016
27425 322 18341047428997157407
376196 1 18339359772884554426
394071 54 18337956688646163853
397830 11 18335994082598929147
4066623 53 17912371927324688686
44317340 157 18270117891118709839
49967989 163 8426719281545238240
5109719 28 18336554846165537803
5223283 242 17699021582626885455
53794403 172 18411699859341432399
57527585 21 17910934044602967639
5776283 40 18336845125682916974
58902169 19 17630029483015396999
5951187 136 18342179929751125966
9849439 229 18334856160039264703

> <PUBCHEM_SHAPE_MULTIPOLES>
718.45
20.48
8.7
1.73
43.6
3.03
0.32
34.13
2.79
-13.03
-0.82
-0.6
-0.65
2.95

> <PUBCHEM_SHAPE_SELFOVERLAP>
1562.283

> <PUBCHEM_SHAPE_VOLUME>
395.3

> <PUBCHEM_COORDINATE_TYPE>
2
5
10

$$$$
56598714
  -OEChem-05102415123D

 73 79  0     1  0  0  0  0  0999 V2000
    1.1371   -0.5375   -0.1029 S   0  0  0  0  0  0  0  0  0  0  0  0
    8.9931    0.2398   -0.2679 O   0  0  0  0  0  0  0  0  0  0  0  0
   -4.7623    1.1528   -1.7755 O   0  0  0  0  0  0  0  0  0  0  0  0
   -1.4242   -4.4573   -0.1767 O   0  0  0  0  0  0  0  0  0  0  0  0
    6.3895   -0.7775    0.2687 N   0  0  0  0  0  0  0  0  0  0  0  0
   -4.7453    0.8850    0.5354 N   0  0  0  0  0  0  0  0  0  0  0  0
    1.2711   -3.1239   -0.0091 N   0  0  0  0  0  0  0  0  0  0  0  0
   -0.9267   -2.1533   -0.2113 N   0  0  0  0  0  0  0  0  0  0  0  0
   -2.0616    2.0238    0.3101 N   0  0  0  0  0  0  0  0  0  0  0  0
   -1.4923    3.6631   -1.0998 N   0  0  0  0  0  0  0  0  0  0  0  0
    3.1307    4.8098    1.2639 N   0  0  0  0  0  0  0  0  0  0  0  0
    5.1484   -1.4374   -0.1312 C   0  0  1  0  0  0  0  0  0  0  0  0
    4.9949   -2.7800    0.6196 C   0  0  0  0  0  0  0  0  0  0  0  0
    3.9522   -0.4947    0.1368 C   0  0  0  0  0  0  0  0  0  0  0  0
   -5.6773   -0.2495    0.6085 C   0  0  2  0  0  0  0  0  0  0  0  0
    3.7307   -3.5415    0.1774 C   0  0  0  0  0  0  0  0  0  0  0  0
   -6.0393   -0.3527    2.0981 C   0  0  0  0  0  0  0  0  0  0  0  0
    7.5402   -1.6716    0.0795 C   0  0  0  0  0  0  0  0  0  0  0  0
    6.5876    0.4653   -0.4901 C   0  0  0  0  0  0  0  0  0  0  0  0
    2.6730   -1.2565    0.0372 C   0  0  0  0  0  0  0  0  0  0  0  0
   -5.8422    1.0686    2.6072 C   0  0  0  0  0  0  0  0  0  0  0  0
    2.5563   -2.6316    0.0787 C   0  0  0  0  0  0  0  0  0  0  0  0
   -4.6153    1.5342    1.8391 C   0  0  0  0  0  0  0  0  0  0  0  0
    8.8241   -0.9572    0.4921 C   0  0  0  0  0  0  0  0  0  0  0  0
    7.8943    1.1292   -0.0651 C   0  0  0  0  0  0  0  0  0  0  0  0
   -5.1184   -1.5479    0.0709 C   0  0  0  0  0  0  0  0  0  0  0  0
   -4.2567    1.3656   -0.6749 C   0  0  0  0  0  0  0  0  0  0  0  0
    0.4384   -2.1091   -0.1064 C   0  0  0  0  0  0  0  0  0  0  0  0
   -3.7509   -1.8087    0.1589 C   0  0  0  0  0  0  0  0  0  0  0  0
   -5.9710   -2.4855   -0.5122 C   0  0  0  0  0  0  0  0  0  0  0  0
   -3.2360   -3.0069   -0.3361 C   0  0  0  0  0  0  0  0  0  0  0  0
   -3.0339    2.1869   -0.6436 C   0  0  0  0  0  0  0  0  0  0  0  0
   -5.4561   -3.6838   -1.0070 C   0  0  0  0  0  0  0  0  0  0  0  0
   -1.7788   -3.2851   -0.2418 C   0  0  0  0  0  0  0  0  0  0  0  0
   -4.0886   -3.9444   -0.9191 C   0  0  0  0  0  0  0  0  0  0  0  0
   -2.7070    3.1902   -1.5251 C   0  0  0  0  0  0  0  0  0  0  0  0
   -1.1400    2.9204    0.0224 C   0  0  0  0  0  0  0  0  0  0  0  0
   -0.7036    4.6794   -1.6279 C   0  0  0  0  0  0  0  0  0  0  0  0
    0.1032    3.2370    0.6475 C   0  0  0  0  0  0  0  0  0  0  0  0
    0.8783    4.2221    0.1454 C   0  0  0  0  0  0  0  0  0  0  0  0
    0.4652    4.9743   -1.0353 C   0  0  0  0  0  0  0  0  0  0  0  0
    2.1190    4.5458    0.7616 C   0  0  0  0  0  0  0  0  0  0  0  0
    5.1743   -1.6637   -1.2082 H   0  0  0  0  0  0  0  0  0  0  0  0
    4.9509   -2.5975    1.7019 H   0  0  0  0  0  0  0  0  0  0  0  0
    5.8163   -3.4775    0.4363 H   0  0  0  0  0  0  0  0  0  0  0  0
    3.9243    0.3223   -0.5932 H   0  0  0  0  0  0  0  0  0  0  0  0
    4.0208   -0.0559    1.1408 H   0  0  0  0  0  0  0  0  0  0  0  0
   -6.5574    0.0445    0.0212 H   0  0  0  0  0  0  0  0  0  0  0  0
    3.9028   -3.9954   -0.8061 H   0  0  0  0  0  0  0  0  0  0  0  0
    3.5235   -4.3539    0.8826 H   0  0  0  0  0  0  0  0  0  0  0  0
   -5.3576   -1.0270    2.6324 H   0  0  0  0  0  0  0  0  0  0  0  0
   -7.0587   -0.7192    2.2537 H   0  0  0  0  0  0  0  0  0  0  0  0
    7.6154   -1.9934   -0.9671 H   0  0  0  0  0  0  0  0  0  0  0  0
    7.4984   -2.5547    0.7210 H   0  0  0  0  0  0  0  0  0  0  0  0
    5.7970    1.1966   -0.2996 H   0  0  0  0  0  0  0  0  0  0  0  0
    6.6165    0.2576   -1.5676 H   0  0  0  0  0  0  0  0  0  0  0  0
   -6.7107    1.6820    2.3387 H   0  0  0  0  0  0  0  0  0  0  0  0
   -5.7057    1.1196    3.6907 H   0  0  0  0  0  0  0  0  0  0  0  0
   -3.6970    1.1638    2.3074 H   0  0  0  0  0  0  0  0  0  0  0  0
   -4.5611    2.6217    1.7377 H   0  0  0  0  0  0  0  0  0  0  0  0
    9.6887   -1.5995    0.2959 H   0  0  0  0  0  0  0  0  0  0  0  0
    8.8277   -0.7145    1.5619 H   0  0  0  0  0  0  0  0  0  0  0  0
    7.8665    1.4428    0.9857 H   0  0  0  0  0  0  0  0  0  0  0  0
    8.0739    2.0224   -0.6723 H   0  0  0  0  0  0  0  0  0  0  0  0
   -3.1065   -1.0958    0.6639 H   0  0  0  0  0  0  0  0  0  0  0  0
   -7.0383   -2.2942   -0.5850 H   0  0  0  0  0  0  0  0  0  0  0  0
   -1.3447   -1.2325   -0.3083 H   0  0  0  0  0  0  0  0  0  0  0  0
   -6.1200   -4.4134   -1.4615 H   0  0  0  0  0  0  0  0  0  0  0  0
   -3.7067   -4.8816   -1.3153 H   0  0  0  0  0  0  0  0  0  0  0  0
   -3.2140    3.5991   -2.3889 H   0  0  0  0  0  0  0  0  0  0  0  0
   -1.0653    5.2004   -2.5060 H   0  0  0  0  0  0  0  0  0  0  0  0
    0.3979    2.6699    1.5252 H   0  0  0  0  0  0  0  0  0  0  0  0
    1.1032    5.7613   -1.4224 H   0  0  0  0  0  0  0  0  0  0  0  0
  1 20  1  0  0  0  0
  1 28  1  0  0  0  0
  2 24  1  0  0  0  0
  2 25  1  0  0  0  0
  3 27  2  0  0  0  0
  4 34  2  0  0  0  0
  5 12  1  0  0  0  0
  5 18  1  0  0  0  0
  5 19  1  0  0  0  0
  6 15  1  0  0  0  0
  6 23  1  0  0  0  0
  6 27  1  0  0  0  0
  7 22  1  0  0  0  0
  7 28  2  0  0  0  0
  8 28  1  0  0  0  0
  8 34  1  0  0  0  0
  8 67  1  0  0  0  0
  9 32  1  0  0  0  0
  9 37  2  0  0  0  0
 10 36  1  0  0  0  0
 10 37  1  0  0  0  0
 10 38  1  0  0  0  0
 11 42  3  0  0  0  0
 12 13  1  0  0  0  0
 12 14  1  0  0  0  0
 12 43  1  0  0  0  0
 13 16  1  0  0  0  0
 13 44  1  0  0  0  0
 13 45  1  0  0  0  0
 14 20  1  0  0  0  0
 14 46  1  0  0  0  0
 14 47  1  0  0  0  0
 15 17  1  0  0  0  0
 15 26  1  0  0  0  0
 15 48  1  0  0  0  0
 16 22  1  0  0  0  0
 16 49  1  0  0  0  0
 16 50  1  0  0  0  0
 17 21  1  0  0  0  0
 17 51  1  0  0  0  0
 17 52  1  0  0  0  0
 18 24  1  0  0  0  0
 18 53  1  0  0  0  0
 18 54  1  0  0  0  0
 19 25  1  0  0  0  0
 19 55  1  0  0  0  0
 19 56  1  0  0  0  0
 20 22  2  0  0  0  0
 21 23  1  0  0  0  0
 21 57  1  0  0  0  0
 21 58  1  0  0  0  0
 23 59  1  0  0  0  0
 23 60  1  0  0  0  0
 24 61  1  0  0  0  0
 24 62  1  0  0  0  0
 25 63  1  0  0  0  0
 25 64  1  0  0  0  0
 26 29  2  0  0  0  0
 26 30  1  0  0  0  0
 27 32  1  0  0  0  0
 29 31  1  0  0  0  0
 29 65  1  0  0  0  0
 30 33  2  0  0  0  0
 30 66  1  0  0  0  0
 31 34  1  0  0  0  0
 31 35  2  0  0  0  0
 32 36  2  0  0  0  0
 33 35  1  0  0  0  0
 33 68  1  0  0  0  0
 35 69  1  0  0  0  0
 36 70  1  0  0  0  0
 37 39  1  0  0  0  0
 38 41  2  0  0  0  0
 38 71  1  0  0  0  0
 39 40  2  0  0  0  0
 39 72  1  0  0  0  0
 40 41  1  0  0  0  0
 40 42  1  0  0  0  0
 41 73  1  0  0  0  0
M  END
> <PUBCHEM_COMPOUND_CID>
56598714

> <PUBCHEM_CONFORMER_RMSD>
1.2

> <PUBCHEM_CONFORMER_DIVERSEORDER>
1
220
12
268
165
139
143
42
141
304
14
63
65
292
218
55
78
84
11
223
178
244
207
309
45
188
144
128
275
283
212
152
180
202
140
31
289
119
318
85
101
93
117
126
199
184
138
316
173
263
172
186
153
44
311
209
66
77
287
19
189
147
132
252
155
260
191
195
302
168
123
205
95
113
68
254
27
284
48
160
133
271
120
190
206
72
293
20
130
33
79
111
34
255
142
266
36
18
270
234
136
315
39
134
312
47
87
274
69
98
279
100
187
261
40
210
151
164
273
305
38
80
215
86
298
208
96
118
213
108
115
159
107
297
163
200
156
236
181
2
26
102
154
74
216
256
131
157
99
272
193
17
317
129
112
148
301
114
30
60
89
167
294
22
176
224
116
37
135
226
88
238
21
288
58
211
175
296
146
306
203
291
250
197
161
150
179
28
228
235
110
103
269
91
24
54
53
276
97
241
286
219
23
278
222
109
124
227
122
201
314
15
169
239
64
75
121
242
308
174
282
149
67
225
231
61
104
232
105
248
70
158
194
303
49
170
221
264
182
230
183
280
313
94
106
41
249
247
243
10
300
81
258
240
246
233
237
265
125
214
253
8
29
285
162
32
13
57
319
46
217
56
71
83
198
295
7
251
35
145
25
185
290
192
277
196
137
127
299
43
171
267
90
307
62
76
310
5
245
52
281
16
257
50
51
82
59
166
262
204
92
4
73
3
229
259
6
177
9

> <PUBCHEM_MMFF94_PARTIAL_CHARGES>
48
1 -0.08
10 0.33
11 -0.56
12 0.27
14 0.18
15 0.44
16 0.18
18 0.27
19 0.27
2 -0.56
20 -0.14
22 0.05
23 0.3
24 0.28
25 0.28
26 -0.14
27 0.72
28 0.44
29 -0.15
3 -0.57
30 -0.15
31 0.09
32 0.14
33 -0.15
34 0.54
35 -0.15
36 -0.3
37 0.14
38 -0.18
39 -0.11
4 -0.57
40 0.06
41 -0.15
42 0.49
5 -0.81
6 -0.66
65 0.15
66 0.15
67 0.37
68 0.15
69 0.15
7 -0.57
70 0.15
71 0.15
72 0.15
73 0.15
8 -0.49
9 -0.57

> <PUBCHEM_EFFECTIVE_ROTOR_COUNT>
10

> <PUBCHEM_PHARMACOPHORE_FEATURES>
14
1 11 acceptor
1 2 acceptor
1 3 acceptor
1 4 acceptor
1 5 cation
1 8 donor
3 9 10 37 cation
5 1 7 20 22 28 rings
5 6 15 17 21 23 rings
5 9 10 32 36 37 rings
6 10 37 38 39 40 41 rings
6 12 13 14 16 20 22 rings
6 2 5 18 19 24 25 rings
6 26 29 30 31 33 35 rings

> <PUBCHEM_HEAVY_ATOM_COUNT>
42

> <PUBCHEM_ATOM_DEF_STEREO_COUNT>
2

> <PUBCHEM_ATOM_UDEF_STEREO_COUNT>
0

> <PUBCHEM_BOND_DEF_STEREO_COUNT>
0

> <PUBCHEM_BOND_UDEF_STEREO_COUNT>
0

> <PUBCHEM_ISOTOPIC_ATOM_COUNT>
0

> <PUBCHEM_COMPONENT_COUNT>
1

> <PUBCHEM_CACTVS_TAUTO_COUNT>
3

> <PUBCHEM_CONFORMER_ID>
035FA0BA00000001

> <PUBCHEM_MMFF94_ENERGY>
95.4582

> <PUBCHEM_FEATURE_SELFOVERLAP>
71.235

> <PUBCHEM_SHAPE_FINGERPRINT>
100830 39 18264483997727016038
10462674 296 18054495083044917278
11204353 107 18410565189754871940
13383665 225 18263383485910067550
14040221 222 17774711009425594769
14294032 229 18338803317226749816
14394314 77 18410297978000521841
14747282 140 18270690745229831689
15276724 80 18410571752286110694
15320467 1 18410570673752797566
15347590 135 17967822625736433186
15400415 2 17473255475872451668
15538507 32 18266733584841513140
16993438 75 17973161721689558617
18608769 82 18411978045159087010
19611394 137 18115039583643306074
20609170 92 18117819209721935877
21133410 38 17983586479400871499
21353434 59 18342172280646467544
21792964 463 17749405732891732270
21796203 349 17974044788445643817
23516275 137 17754480141772935897
50677037 204 18410854356385110622
57676310 188 18048045352611274796
59520647 208 18200027495239795480
6036956 94 17974563598756640733
9961470 85 18051405464481922881

> <PUBCHEM_SHAPE_MULTIPOLES>
815.71
20.19
7.78
1.38
36.44
6.26
0.45
-10.76
3.74
-2.12
-1.82
-2.67
1.1
-0.92

> <PUBCHEM_SHAPE_SELFOVERLAP>
1780.923

> <PUBCHEM_SHAPE_VOLUME>
444.9

> <PUBCHEM_COORDINATE_TYPE>
2
5
10

$$$$
118668487
  -OEChem-05102415123D

 59 63  0     0  0  0  0  0  0999 V2000
   -3.5710   -1.9142   -0.7258 S   0  0  0  0  0  0  0  0  0  0  0  0
    3.1187   -2.2083   -0.2188 O   0  0  0  0  0  0  0  0  0  0  0  0
   -4.7441    2.2928    0.9709 O   0  0  0  0  0  0  0  0  0  0  0  0
    2.9727    3.7001   -0.1474 O   0  0  0  0  0  0  0  0  0  0  0  0
   -6.7934   -4.3825   -0.7537 N   0  0  0  0  0  0  0  0  0  0  0  0
   -5.4971   -0.5593    0.3655 N   0  0  0  0  0  0  0  0  0  0  0  0
   -3.4197    0.6067   -0.0090 N   0  0  0  0  0  0  0  0  0  0  0  0
    1.4585    2.4192   -1.3497 N   0  0  0  0  0  0  0  0  0  0  0  0
    7.3242   -3.3662    1.1188 N   0  0  0  0  0  0  0  0  0  0  0  0
    7.0433   -3.9436   -0.0619 N   0  0  0  0  0  0  0  0  0  0  0  0
   -7.3359   -2.2694    0.4717 C   0  0  0  0  0  0  0  0  0  0  0  0
   -7.4481   -3.8087    0.4363 C   0  0  0  0  0  0  0  0  0  0  0  0
   -5.9513   -1.8386    0.1374 C   0  0  0  0  0  0  0  0  0  0  0  0
   -5.3378   -4.1300   -0.7625 C   0  0  0  0  0  0  0  0  0  0  0  0
   -5.0507   -2.7016   -0.4509 C   0  0  0  0  0  0  0  0  0  0  0  0
   -4.2494   -0.4825   -0.0497 C   0  0  0  0  0  0  0  0  0  0  0  0
   -2.5628    2.8791    0.4140 C   0  0  0  0  0  0  0  0  0  0  0  0
   -0.5179    3.6431   -0.6213 C   0  0  0  0  0  0  0  0  0  0  0  0
   -3.6869    1.9087    0.4821 C   0  0  0  0  0  0  0  0  0  0  0  0
    0.5413    3.4865   -1.6594 C   0  0  0  0  0  0  0  0  0  0  0  0
   -1.5730    2.7328   -0.5578 C   0  0  0  0  0  0  0  0  0  0  0  0
    3.4688    1.4220   -0.3981 C   0  0  0  0  0  0  0  0  0  0  0  0
    5.0739   -0.8261   -0.0068 C   0  0  0  0  0  0  0  0  0  0  0  0
   -0.4527    4.6997    0.2872 C   0  0  0  0  0  0  0  0  0  0  0  0
   -2.4977    3.9356    1.3225 C   0  0  0  0  0  0  0  0  0  0  0  0
    3.7016   -0.9753   -0.2090 C   0  0  0  0  0  0  0  0  0  0  0  0
    2.6148    2.6193   -0.6083 C   0  0  0  0  0  0  0  0  0  0  0  0
    2.8992    0.1488   -0.4046 C   0  0  0  0  0  0  0  0  0  0  0  0
   -1.4425    4.8458    1.2593 C   0  0  0  0  0  0  0  0  0  0  0  0
    4.8410    1.5713   -0.1959 C   0  0  0  0  0  0  0  0  0  0  0  0
    5.6433    0.4473   -0.0001 C   0  0  0  0  0  0  0  0  0  0  0  0
    5.9197   -1.9715    0.1950 C   0  0  0  0  0  0  0  0  0  0  0  0
    6.6767   -2.1829    1.3215 C   0  0  0  0  0  0  0  0  0  0  0  0
    6.1850   -3.0870   -0.6217 C   0  0  0  0  0  0  0  0  0  0  0  0
    2.6491   -2.7112    1.0299 C   0  0  0  0  0  0  0  0  0  0  0  0
   -7.6213   -1.9005    1.4627 H   0  0  0  0  0  0  0  0  0  0  0  0
   -8.0262   -1.8325   -0.2598 H   0  0  0  0  0  0  0  0  0  0  0  0
   -7.0023   -4.2434    1.3400 H   0  0  0  0  0  0  0  0  0  0  0  0
   -8.5055   -4.0954    0.4392 H   0  0  0  0  0  0  0  0  0  0  0  0
   -4.9400   -4.4038   -1.7458 H   0  0  0  0  0  0  0  0  0  0  0  0
   -4.8552   -4.7772   -0.0209 H   0  0  0  0  0  0  0  0  0  0  0  0
   -7.2058   -3.9625   -1.5875 H   0  0  0  0  0  0  0  0  0  0  0  0
   -2.4866    0.4027   -0.3540 H   0  0  0  0  0  0  0  0  0  0  0  0
    0.0848    3.2588   -2.6299 H   0  0  0  0  0  0  0  0  0  0  0  0
    1.1046    4.4181   -1.7903 H   0  0  0  0  0  0  0  0  0  0  0  0
   -1.6134    1.9408   -1.3003 H   0  0  0  0  0  0  0  0  0  0  0  0
    0.3644    5.4154    0.2512 H   0  0  0  0  0  0  0  0  0  0  0  0
    1.2483    1.5105   -1.7480 H   0  0  0  0  0  0  0  0  0  0  0  0
   -3.2554    4.0647    2.0909 H   0  0  0  0  0  0  0  0  0  0  0  0
    1.8304   -0.0022   -0.5282 H   0  0  0  0  0  0  0  0  0  0  0  0
   -1.3906    5.6673    1.9677 H   0  0  0  0  0  0  0  0  0  0  0  0
    5.3042    2.5544   -0.1931 H   0  0  0  0  0  0  0  0  0  0  0  0
    6.7116    0.5864    0.1500 H   0  0  0  0  0  0  0  0  0  0  0  0
    6.8134   -1.6165    2.2325 H   0  0  0  0  0  0  0  0  0  0  0  0
    5.7911   -3.3149   -1.6023 H   0  0  0  0  0  0  0  0  0  0  0  0
    7.9689   -3.8365    1.7417 H   0  0  0  0  0  0  0  0  0  0  0  0
    2.2602   -3.7201    0.8676 H   0  0  0  0  0  0  0  0  0  0  0  0
    1.8389   -2.0825    1.4128 H   0  0  0  0  0  0  0  0  0  0  0  0
    3.4594   -2.7640    1.7635 H   0  0  0  0  0  0  0  0  0  0  0  0
  1 15  1  0  0  0  0
  1 16  1  0  0  0  0
  2 26  1  0  0  0  0
  2 35  1  0  0  0  0
  3 19  2  0  0  0  0
  4 27  2  0  0  0  0
  5 12  1  0  0  0  0
  5 14  1  0  0  0  0
  5 42  1  0  0  0  0
  6 13  1  0  0  0  0
  6 16  2  0  0  0  0
  7 16  1  0  0  0  0
  7 19  1  0  0  0  0
  7 43  1  0  0  0  0
  8 20  1  0  0  0  0
  8 27  1  0  0  0  0
  8 48  1  0  0  0  0
  9 10  1  0  0  0  0
  9 33  1  0  0  0  0
  9 56  1  0  0  0  0
 10 34  2  0  0  0  0
 11 12  1  0  0  0  0
 11 13  1  0  0  0  0
 11 36  1  0  0  0  0
 11 37  1  0  0  0  0
 12 38  1  0  0  0  0
 12 39  1  0  0  0  0
 13 15  2  0  0  0  0
 14 15  1  0  0  0  0
 14 40  1  0  0  0  0
 14 41  1  0  0  0  0
 17 19  1  0  0  0  0
 17 21  1  0  0  0  0
 17 25  2  0  0  0  0
 18 20  1  0  0  0  0
 18 21  2  0  0  0  0
 18 24  1  0  0  0  0
 20 44  1  0  0  0  0
 20 45  1  0  0  0  0
 21 46  1  0  0  0  0
 22 27  1  0  0  0  0
 22 28  2  0  0  0  0
 22 30  1  0  0  0  0
 23 26  2  0  0  0  0
 23 31  1  0  0  0  0
 23 32  1  0  0  0  0
 24 29  2  0  0  0  0
 24 47  1  0  0  0  0
 25 29  1  0  0  0  0
 25 49  1  0  0  0  0
 26 28  1  0  0  0  0
 28 50  1  0  0  0  0
 29 51  1  0  0  0  0
 30 31  2  0  0  0  0
 30 52  1  0  0  0  0
 31 53  1  0  0  0  0
 32 33  2  0  0  0  0
 32 34  1  0  0  0  0
 33 54  1  0  0  0  0
 34 55  1  0  0  0  0
 35 57  1  0  0  0  0
 35 58  1  0  0  0  0
 35 59  1  0  0  0  0
M  END
> <PUBCHEM_COMPOUND_CID>
118668487

> <PUBCHEM_CONFORMER_RMSD>
1.2

> <PUBCHEM_CONFORMER_DIVERSEORDER>
1
163
158
36
139
75
91
171
112
78
96
63
95
109
162
16
73
121
58
153
6
69
50
79
24
148
49
138
93
51
150
9
72
159
100
27
149
70
55
118
143
48
101
54
141
56
59
116
111
164
102
68
21
92
8
11
74
26
123
103
99
126
167
107
161
76
110
157
80
131
88
61
173
53
117
19
44
86
145
156
14
175
105
12
84
66
47
97
17
82
170
114
29
32
136
144
87
172
135
119
85
60
37
89
40
174
113
46
108
39
18
23
133
7
83
35
166
147
165
127
71
132
31
160
20
64
129
41
130
137
67
13
42
94
122
81
151
45
22
65
77
169
33
90
168
155
115
28
25
98
125
43
38
120
140
30
146
142
57
134
5
62
10
124
2
52
104
152
154
128
15
106
4
34
3

> <PUBCHEM_MMFF94_PARTIAL_CHARGES>
48
1 -0.08
10 -0.71
11 0.18
12 0.27
13 0.05
14 0.45
15 -0.14
16 0.44
17 0.09
18 -0.14
19 0.54
2 -0.36
20 0.44
21 -0.15
22 0.09
23 0.05
24 -0.15
25 -0.15
26 0.08
27 0.54
28 -0.15
29 -0.15
3 -0.57
30 -0.15
31 -0.15
32 -0.05
33 -0.3
34 0.14
35 0.28
4 -0.57
42 0.36
43 0.37
46 0.15
47 0.15
48 0.37
49 0.15
5 -0.9
50 0.15
51 0.15
52 0.15
53 0.15
54 0.15
55 0.15
56 0.27
6 -0.57
7 -0.49
8 -0.73
9 0.3

> <PUBCHEM_EFFECTIVE_ROTOR_COUNT>
9.8

> <PUBCHEM_PHARMACOPHORE_FEATURES>
14
1 10 acceptor
1 2 acceptor
1 3 acceptor
1 4 acceptor
1 5 cation
1 5 donor
1 7 donor
1 8 donor
1 9 donor
5 1 6 13 15 16 rings
5 9 10 32 33 34 rings
6 17 18 21 24 25 29 rings
6 22 23 26 28 30 31 rings
6 5 11 12 13 14 15 rings

> <PUBCHEM_HEAVY_ATOM_COUNT>
35

> <PUBCHEM_ATOM_DEF_STEREO_COUNT>
0

> <PUBCHEM_ATOM_UDEF_STEREO_COUNT>
0

> <PUBCHEM_BOND_DEF_STEREO_COUNT>
0

> <PUBCHEM_BOND_UDEF_STEREO_COUNT>
0

> <PUBCHEM_ISOTOPIC_ATOM_COUNT>
0

> <PUBCHEM_COMPONENT_COUNT>
1

> <PUBCHEM_CACTVS_TAUTO_COUNT>
27

> <PUBCHEM_CONFORMER_ID>
0712BCC700000001

> <PUBCHEM_MMFF94_ENERGY>
91.8886

> <PUBCHEM_FEATURE_SELFOVERLAP>
71.119

> <PUBCHEM_SHAPE_FINGERPRINT>
10100884 174 18334009506512516162
10462674 296 18335984190455737820
10622 236 18408323306519883493
11093857 5 17913505536285747462
11409948 35 18264488576769302111
11607047 403 18124585634418231008
117089 54 18409173233250555875
11761917 116 18409456869492316926
11801155 225 17615125482257602714
12841400 136 18335417989165022811
13553639 21 18193568976364581755
1361 4 18411983546959322240
13947947 140 18336833086694543719
14040222 275 18264229005007605822
14068700 675 18409450271657418344
14344974 204 18266458716268821654
14429380 30 18334580126896822842
14856354 85 17983014445655514068
14904385 45 18261677090354414835
15419008 145 18338789006380831002
15538507 19 18268146449600021354
15728490 83 18410576210561767039
15803439 3 16884669356360912325
16728300 4 18341613759146823517
17492 89 18410293626935445973
18608769 82 18121780522905408390
19303781 99 17894920594141387984
19319366 153 17690567806792684765
19841028 212 18334011718192871387
208703 8 18408316687859164147
21133410 221 17053876473154928575
21362267 20 17903913363288612634
23523787 8 17102803684224483437
23523788 1 18053072263511319528
23569914 152 18125689441381717695
24204213 148 18262808492520292364
3383291 50 18052543166886087929
4017518 198 17615971010962194061
44344687 77 17970356017556381123
4616759 239 17625802883277580512
4756088 132 17908695473673870327
484985 159 18118678825376705285
50080093 196 17680140772816829251
6057620 51 18261962946555872156
6058803 2 18264795236084485028
6201320 77 17244172593623791947
6697151 62 17773872194604185765
7970288 3 18339924938992939125
9555976 147 17845950571529248129

> <PUBCHEM_SHAPE_MULTIPOLES>
676.64
21.48
8.3
1.1
1.92
3.17
-0.03
-36.56
-2.88
4.17
-0.6
-0.18
0.46
-3.28

> <PUBCHEM_SHAPE_SELFOVERLAP>
1471.341

> <PUBCHEM_SHAPE_VOLUME>
371.9

> <PUBCHEM_COORDINATE_TYPE>
2
5
10

$$$$
118668488
  -OEChem-05102415143D

 62 66  0     1  0  0  0  0  0999 V2000
   -5.7299    0.6618    1.3776 S   0  0  0  0  0  0  0  0  0  0  0  0
   -3.7160   -2.0338   -1.8827 O   0  0  0  0  0  0  0  0  0  0  0  0
    6.0688    2.8463    0.0631 O   0  0  0  0  0  0  0  0  0  0  0  0
    1.4817    0.8386    0.8933 O   0  0  0  0  0  0  0  0  0  0  0  0
   -8.9545    2.5873   -0.1680 N   0  0  2  0  0  0  0  0  0  0  0  0
   -5.9691   -0.2161   -1.0527 N   0  0  0  0  0  0  0  0  0  0  0  0
   -4.0335   -0.9480    0.1855 N   0  0  0  0  0  0  0  0  0  0  0  0
    2.0073   -1.2588    1.7322 N   0  0  0  0  0  0  0  0  0  0  0  0
    9.6195    0.2508   -1.5842 N   0  0  0  0  0  0  0  0  0  0  0  0
    9.8460    1.3795   -0.8907 N   0  0  0  0  0  0  0  0  0  0  0  0
   -9.3423    1.5215   -1.1194 C   0  0  0  0  0  0  0  0  0  0  0  0
   -8.1060    0.8797   -1.7903 C   0  0  0  0  0  0  0  0  0  0  0  0
   -8.1694    2.0494    0.9700 C   0  0  0  0  0  0  0  0  0  0  0  0
   -7.0483    0.5954   -0.7842 C   0  0  0  0  0  0  0  0  0  0  0  0
   -7.0793    1.1593    0.4734 C   0  0  0  0  0  0  0  0  0  0  0  0
  -10.1346    3.2981    0.3226 C   0  0  0  0  0  0  0  0  0  0  0  0
   -5.2047   -0.2574    0.0190 C   0  0  0  0  0  0  0  0  0  0  0  0
   -3.3552   -1.7817   -0.7380 C   0  0  0  0  0  0  0  0  0  0  0  0
   -2.0770   -2.3774   -0.2680 C   0  0  0  0  0  0  0  0  0  0  0  0
   -0.1229   -2.2873    1.1502 C   0  0  0  0  0  0  0  0  0  0  0  0
   -1.3227   -1.7285    0.7096 C   0  0  0  0  0  0  0  0  0  0  0  0
    0.6843   -1.5933    2.1947 C   0  0  0  0  0  0  0  0  0  0  0  0
   -1.6313   -3.5851   -0.8053 C   0  0  0  0  0  0  0  0  0  0  0  0
    0.3227   -3.4950    0.6130 C   0  0  0  0  0  0  0  0  0  0  0  0
    3.7053    0.1293    0.6687 C   0  0  0  0  0  0  0  0  0  0  0  0
    6.3481    0.4691   -0.1582 C   0  0  0  0  0  0  0  0  0  0  0  0
   -0.4314   -4.1438   -0.3651 C   0  0  0  0  0  0  0  0  0  0  0  0
    5.5666    1.5816    0.1543 C   0  0  0  0  0  0  0  0  0  0  0  0
    2.2988   -0.0522    1.1108 C   0  0  0  0  0  0  0  0  0  0  0  0
    4.2452    1.4116    0.5678 C   0  0  0  0  0  0  0  0  0  0  0  0
    4.4869   -0.9831    0.3561 C   0  0  0  0  0  0  0  0  0  0  0  0
    5.8081   -0.8132   -0.0575 C   0  0  0  0  0  0  0  0  0  0  0  0
    7.7131    0.6216   -0.5848 C   0  0  0  0  0  0  0  0  0  0  0  0
    8.3571   -0.2438   -1.4349 C   0  0  0  0  0  0  0  0  0  0  0  0
    8.6779    1.6011   -0.2822 C   0  0  0  0  0  0  0  0  0  0  0  0
    5.1909    3.9164    0.4042 C   0  0  0  0  0  0  0  0  0  0  0  0
   -9.9797    1.9328   -1.9119 H   0  0  0  0  0  0  0  0  0  0  0  0
   -9.9263    0.7480   -0.6020 H   0  0  0  0  0  0  0  0  0  0  0  0
   -7.6989    1.5660   -2.5427 H   0  0  0  0  0  0  0  0  0  0  0  0
   -8.4013   -0.0417   -2.3037 H   0  0  0  0  0  0  0  0  0  0  0  0
   -8.8135    1.4732    1.6471 H   0  0  0  0  0  0  0  0  0  0  0  0
   -7.7398    2.8847    1.5358 H   0  0  0  0  0  0  0  0  0  0  0  0
  -10.6780    3.7602   -0.5089 H   0  0  0  0  0  0  0  0  0  0  0  0
   -9.8415    4.1108    0.9964 H   0  0  0  0  0  0  0  0  0  0  0  0
  -10.8233    2.6354    0.8589 H   0  0  0  0  0  0  0  0  0  0  0  0
   -3.6455   -0.8472    1.1187 H   0  0  0  0  0  0  0  0  0  0  0  0
    0.1901   -0.6781    2.5407 H   0  0  0  0  0  0  0  0  0  0  0  0
    0.7943   -2.2475    3.0673 H   0  0  0  0  0  0  0  0  0  0  0  0
   -1.6287   -0.7701    1.1192 H   0  0  0  0  0  0  0  0  0  0  0  0
   -2.2066   -4.1091   -1.5640 H   0  0  0  0  0  0  0  0  0  0  0  0
    1.2534   -3.9443    0.9495 H   0  0  0  0  0  0  0  0  0  0  0  0
    2.7405   -1.9339    1.9210 H   0  0  0  0  0  0  0  0  0  0  0  0
   -0.0852   -5.0851   -0.7819 H   0  0  0  0  0  0  0  0  0  0  0  0
    3.5942    2.2383    0.8299 H   0  0  0  0  0  0  0  0  0  0  0  0
    4.0973   -1.9961    0.3939 H   0  0  0  0  0  0  0  0  0  0  0  0
    6.3884   -1.7039   -0.2848 H   0  0  0  0  0  0  0  0  0  0  0  0
    8.0513   -1.1442   -1.9498 H   0  0  0  0  0  0  0  0  0  0  0  0
    8.5995    2.4644    0.3631 H   0  0  0  0  0  0  0  0  0  0  0  0
   10.3735   -0.1285   -2.1431 H   0  0  0  0  0  0  0  0  0  0  0  0
    5.7543    4.8465    0.2735 H   0  0  0  0  0  0  0  0  0  0  0  0
    4.8919    3.8758    1.4573 H   0  0  0  0  0  0  0  0  0  0  0  0
    4.3335    3.9705   -0.2754 H   0  0  0  0  0  0  0  0  0  0  0  0
  1 15  1  0  0  0  0
  1 17  1  0  0  0  0
  2 18  2  0  0  0  0
  3 28  1  0  0  0  0
  3 36  1  0  0  0  0
  4 29  2  0  0  0  0
  5 11  1  0  0  0  0
  5 13  1  0  0  0  0
  5 16  1  0  0  0  0
  6 14  1  0  0  0  0
  6 17  2  0  0  0  0
  7 17  1  0  0  0  0
  7 18  1  0  0  0  0
  7 46  1  0  0  0  0
  8 22  1  0  0  0  0
  8 29  1  0  0  0  0
  8 52  1  0  0  0  0
  9 10  1  0  0  0  0
  9 34  1  0  0  0  0
  9 59  1  0  0  0  0
 10 35  2  0  0  0  0
 11 12  1  0  0  0  0
 11 37  1  0  0  0  0
 11 38  1  0  0  0  0
 12 14  1  0  0  0  0
 12 39  1  0  0  0  0
 12 40  1  0  0  0  0
 13 15  1  0  0  0  0
 13 41  1  0  0  0  0
 13 42  1  0  0  0  0
 14 15  2  0  0  0  0
 16 43  1  0  0  0  0
 16 44  1  0  0  0  0
 16 45  1  0  0  0  0
 18 19  1  0  0  0  0
 19 21  1  0  0  0  0
 19 23  2  0  0  0  0
 20 21  2  0  0  0  0
 20 22  1  0  0  0  0
 20 24  1  0  0  0  0
 21 49  1  0  0  0  0
 22 47  1  0  0  0  0
 22 48  1  0  0  0  0
 23 27  1  0  0  0  0
 23 50  1  0  0  0  0
 24 27  2  0  0  0  0
 24 51  1  0  0  0  0
 25 29  1  0  0  0  0
 25 30  2  0  0  0  0
 25 31  1  0  0  0  0
 26 28  2  0  0  0  0
 26 32  1  0  0  0  0
 26 33  1  0  0  0  0
 27 53  1  0  0  0  0
 28 30  1  0  0  0  0
 30 54  1  0  0  0  0
 31 32  2  0  0  0  0
 31 55  1  0  0  0  0
 32 56  1  0  0  0  0
 33 34  2  0  0  0  0
 33 35  1  0  0  0  0
 34 57  1  0  0  0  0
 35 58  1  0  0  0  0
 36 60  1  0  0  0  0
 36 61  1  0  0  0  0
 36 62  1  0  0  0  0
M  END
> <PUBCHEM_COMPOUND_CID>
118668488

> <PUBCHEM_CONFORMER_RMSD>
1.2

> <PUBCHEM_CONFORMER_DIVERSEORDER>
17
145
105
28
84
90
43
113
75
53
87
148
137
31
48
119
96
81
115
42
114
85
11
86
112
83
88
76
1
36
41
19
69
93
131
54
59
138
144
133
94
27
73
78
6
51
24
99
74
130
65
55
95
127
89
45
35
26
104
13
70
91
56
34
44
82
49
57
46
111
15
146
38
21
79
40
60
58
18
150
68
14
140
62
142
101
80
103
22
64
71
120
125
39
151
152
77
124
4
72
52
116
67
32
97
61
118
92
123
33
63
25
110
37
129
102
136
47
147
10
66
132
134
100
29
143
139
149
121
106
141
3
107
122
12
23
7
30
135
8
98
20
117
16
126
109
108
50
2
9
128
5

> <PUBCHEM_MMFF94_PARTIAL_CHARGES>
48
1 -0.08
10 -0.71
11 0.27
12 0.18
13 0.45
14 0.05
15 -0.14
16 0.27
17 0.44
18 0.54
19 0.09
2 -0.57
20 -0.14
21 -0.15
22 0.44
23 -0.15
24 -0.15
25 0.09
26 0.05
27 -0.15
28 0.08
29 0.54
3 -0.36
30 -0.15
31 -0.15
32 -0.15
33 -0.05
34 -0.3
35 0.14
36 0.28
4 -0.57
46 0.37
49 0.15
5 -0.81
50 0.15
51 0.15
52 0.37
53 0.15
54 0.15
55 0.15
56 0.15
57 0.15
58 0.15
59 0.27
6 -0.57
7 -0.49
8 -0.73
9 0.3

> <PUBCHEM_EFFECTIVE_ROTOR_COUNT>
9.8

> <PUBCHEM_PHARMACOPHORE_FEATURES>
13
1 10 acceptor
1 2 acceptor
1 3 acceptor
1 4 acceptor
1 5 cation
1 7 donor
1 8 donor
1 9 donor
5 1 6 14 15 17 rings
5 9 10 33 34 35 rings
6 19 20 21 23 24 27 rings
6 25 26 28 30 31 32 rings
6 5 11 12 13 14 15 rings

> <PUBCHEM_HEAVY_ATOM_COUNT>
36

> <PUBCHEM_ATOM_DEF_STEREO_COUNT>
0

> <PUBCHEM_ATOM_UDEF_STEREO_COUNT>
0

> <PUBCHEM_BOND_DEF_STEREO_COUNT>
0

> <PUBCHEM_BOND_UDEF_STEREO_COUNT>
0

> <PUBCHEM_ISOTOPIC_ATOM_COUNT>
0

> <PUBCHEM_COMPONENT_COUNT>
1

> <PUBCHEM_CACTVS_TAUTO_COUNT>
27

> <PUBCHEM_CONFORMER_ID>
0712BCC800000011

> <PUBCHEM_MMFF94_ENERGY>
97.3626

> <PUBCHEM_FEATURE_SELFOVERLAP>
66.044

> <PUBCHEM_SHAPE_FINGERPRINT>
10100884 174 10231754483528490844
10190206 1 17774729671274571817
10483366 6 18273496758199319906
10533779 47 14418396817046697808
10625338 86 16732697225875157581
10674148 151 18273491291249238152
10904742 90 18410572886241353099
10920273 25 18271814502010770801
10952577 141 18343582924474503213
11211813 128 8358266951853767448
11297010 23 18202567263598392750
11410812 94 15051465868236186194
11411753 3 17558818735799897906
11621639 179 18261106349287496764
11621639 336 18193838145774439337
1200032 147 18260825986180327955
12013929 112 18341623611944426766
12124843 1 17346306133996302857
12838863 1 10447925066328251333
14040221 97 18115302255987008981
14201967 126 18411136910291260577
14400156 260 18186793687414515328
14664723 55 18342178882058693161
15064981 113 16988851574446638724
15064981 194 18190193462448967514
15183329 4 18202846560847160322
15276724 80 18333725806499223684
15320295 40 12607407680506175218
15347590 135 13479129077740637021
15350500 16 11527946755211206807
15510800 12 11887674017378188518
1577012 14 18260540138916288683
15890870 6 18412263913797625313
16087824 20 18335703814790591028
16993427 108 8718828687105486847
20105231 36 10953725692169618120
2026 5 11743842461044125005
20505436 4 18186513315348185619
20609170 85 17845920941051663648
20691028 202 18337948004080048257
21095123 293 17458064872024545508
21136928 129 17822304530280995424
212700 22 11600003254270605157
21585482 111 18189049812091819549
21792965 20 16916779640784917594
23389318 12 13182741485816725954
23528940 14 10663831750456157468
23569914 152 18057908887314511646
23569943 247 9583513249394643949
23729398 52 18047753702277258907
24203241 11 11458723736768582193
249057 3 18411141372618784424
3986486 107 17918272051982616759
406291 66 9511463338340934649
4169191 19 18337945685784178005
42767 23 14692568805999008885
444735 79 8142091957414984402
44880568 143 18194682794933290140
4516262 110 18261667083154149375
4760202 170 18060136596683897200
50009960 94 11170499941255510137
5718773 13 10015862094264730923
57676310 115 18410297969236598296
6201320 221 15769227025216510662
9689198 14 18040719160231397035
9953998 17 14562531791018072955

> <PUBCHEM_SHAPE_MULTIPOLES>
697.22
35.64
4.28
1.5
9.74
1.47
0.02
-40.09
-13.52
2.34
0.12
0.64
0.38
-0.99

> <PUBCHEM_SHAPE_SELFOVERLAP>
1513.029

> <PUBCHEM_SHAPE_VOLUME>
384.4

> <PUBCHEM_COORDINATE_TYPE>
2
5
10

$$$$
