49830300
  -OEChem-05102415013D

 49 52  0     1  0  0  0  0  0999 V2000
    0.3813    5.2074    0.2585 Cl  0  0  0  0  0  0  0  0  0  0  0  0
   -3.8885   -1.6973    1.7151 N   0  0  0  0  0  0  0  0  0  0  0  0
   -1.8739    1.0627   -1.0978 N   0  0  0  0  0  0  0  0  0  0  0  0
    0.3037    0.8049   -0.3351 N   0  0  0  0  0  0  0  0  0  0  0  0
   -0.7380    2.9757   -0.4352 N   0  0  0  0  0  0  0  0  0  0  0  0
    4.3503   -0.2167    1.4509 N   0  0  0  0  0  0  0  0  0  0  0  0
    4.7386   -2.2603    0.2358 N   0  0  0  0  0  0  0  0  0  0  0  0
   -3.6821   -0.8658    0.5476 C   0  0  1  0  0  0  0  0  0  0  0  0
   -2.0213   -0.3747   -1.3393 C   0  0  1  0  0  0  0  0  0  0  0  0
   -2.2801   -1.1187   -0.0212 C   0  0  0  0  0  0  0  0  0  0  0  0
   -4.7662   -1.1711   -0.4880 C   0  0  0  0  0  0  0  0  0  0  0  0
   -3.1395   -0.6582   -2.3528 C   0  0  0  0  0  0  0  0  0  0  0  0
   -4.5389   -0.4078   -1.7903 C   0  0  0  0  0  0  0  0  0  0  0  0
   -2.8304   -1.4675    2.6970 C   0  0  0  0  0  0  0  0  0  0  0  0
   -5.2002   -1.4324    2.3030 C   0  0  0  0  0  0  0  0  0  0  0  0
   -0.7195    1.6393   -0.6003 C   0  0  0  0  0  0  0  0  0  0  0  0
    1.4142    1.4010    0.1464 C   0  0  0  0  0  0  0  0  0  0  0  0
    2.5152    0.5283    0.4371 C   0  0  0  0  0  0  0  0  0  0  0  0
    0.4045    3.5052    0.0492 C   0  0  0  0  0  0  0  0  0  0  0  0
    1.5232    2.7597    0.3611 C   0  0  0  0  0  0  0  0  0  0  0  0
    2.8916   -0.6991   -0.1698 C   0  0  0  0  0  0  0  0  0  0  0  0
    3.4306    0.7995    1.4309 C   0  0  0  0  0  0  0  0  0  0  0  0
    4.0388   -1.1373    0.4851 C   0  0  0  0  0  0  0  0  0  0  0  0
    2.3930   -1.5031   -1.2077 C   0  0  0  0  0  0  0  0  0  0  0  0
    3.0796   -2.6783   -1.5077 C   0  0  0  0  0  0  0  0  0  0  0  0
    4.2139   -2.9952   -0.7724 C   0  0  0  0  0  0  0  0  0  0  0  0
   -3.7544    0.1981    0.8168 H   0  0  0  0  0  0  0  0  0  0  0  0
   -1.0928   -0.7536   -1.7857 H   0  0  0  0  0  0  0  0  0  0  0  0
   -1.4982   -0.8260    0.6862 H   0  0  0  0  0  0  0  0  0  0  0  0
   -2.1503   -2.1942   -0.2080 H   0  0  0  0  0  0  0  0  0  0  0  0
   -4.7942   -2.2470   -0.7071 H   0  0  0  0  0  0  0  0  0  0  0  0
   -5.7632   -0.8856   -0.1356 H   0  0  0  0  0  0  0  0  0  0  0  0
   -2.9972   -0.0457   -3.2514 H   0  0  0  0  0  0  0  0  0  0  0  0
   -3.0723   -1.7067   -2.6704 H   0  0  0  0  0  0  0  0  0  0  0  0
   -4.6850    0.6650   -1.6169 H   0  0  0  0  0  0  0  0  0  0  0  0
   -5.2888   -0.7117   -2.5297 H   0  0  0  0  0  0  0  0  0  0  0  0
   -2.6614    1.6774   -1.2659 H   0  0  0  0  0  0  0  0  0  0  0  0
   -1.8832   -1.9278    2.3983 H   0  0  0  0  0  0  0  0  0  0  0  0
   -2.6726   -0.4035    2.9095 H   0  0  0  0  0  0  0  0  0  0  0  0
   -3.0777   -1.9561    3.6479 H   0  0  0  0  0  0  0  0  0  0  0  0
   -5.3750   -0.3652    2.4828 H   0  0  0  0  0  0  0  0  0  0  0  0
   -6.0153   -1.8369    1.6952 H   0  0  0  0  0  0  0  0  0  0  0  0
   -5.2989   -1.9476    3.2667 H   0  0  0  0  0  0  0  0  0  0  0  0
    2.4222    3.2352    0.7352 H   0  0  0  0  0  0  0  0  0  0  0  0
    3.5207    1.6128    2.1386 H   0  0  0  0  0  0  0  0  0  0  0  0
    5.1366   -0.2796    2.0826 H   0  0  0  0  0  0  0  0  0  0  0  0
    1.5064   -1.2308   -1.7705 H   0  0  0  0  0  0  0  0  0  0  0  0
    2.7339   -3.3317   -2.3016 H   0  0  0  0  0  0  0  0  0  0  0  0
    4.7617   -3.9076   -0.9932 H   0  0  0  0  0  0  0  0  0  0  0  0
  1 19  1  0  0  0  0
  2  8  1  0  0  0  0
  2 14  1  0  0  0  0
  2 15  1  0  0  0  0
  3  9  1  0  0  0  0
  3 16  1  0  0  0  0
  3 37  1  0  0  0  0
  4 16  2  0  0  0  0
  4 17  1  0  0  0  0
  5 16  1  0  0  0  0
  5 19  2  0  0  0  0
  6 22  1  0  0  0  0
  6 23  1  0  0  0  0
  6 46  1  0  0  0  0
  7 23  1  0  0  0  0
  7 26  2  0  0  0  0
  8 10  1  0  0  0  0
  8 11  1  0  0  0  0
  8 27  1  0  0  0  0
  9 10  1  0  0  0  0
  9 12  1  0  0  0  0
  9 28  1  0  0  0  0
 10 29  1  0  0  0  0
 10 30  1  0  0  0  0
 11 13  1  0  0  0  0
 11 31  1  0  0  0  0
 11 32  1  0  0  0  0
 12 13  1  0  0  0  0
 12 33  1  0  0  0  0
 12 34  1  0  0  0  0
 13 35  1  0  0  0  0
 13 36  1  0  0  0  0
 14 38  1  0  0  0  0
 14 39  1  0  0  0  0
 14 40  1  0  0  0  0
 15 41  1  0  0  0  0
 15 42  1  0  0  0  0
 15 43  1  0  0  0  0
 17 18  1  0  0  0  0
 17 20  2  0  0  0  0
 18 21  1  0  0  0  0
 18 22  2  0  0  0  0
 19 20  1  0  0  0  0
 20 44  1  0  0  0  0
 21 23  2  0  0  0  0
 21 24  1  0  0  0  0
 22 45  1  0  0  0  0
 24 25  2  0  0  0  0
 24 47  1  0  0  0  0
 25 26  1  0  0  0  0
 25 48  1  0  0  0  0
 26 49  1  0  0  0  0
M  END
> <PUBCHEM_COMPOUND_CID>
49830300

> <PUBCHEM_CONFORMER_RMSD>
0.8

> <PUBCHEM_CONFORMER_DIVERSEORDER>
1
78
202
115
342
183
196
311
130
42
277
132
203
155
129
112
126
233
86
226
37
15
173
241
261
222
131
219
312
337
227
12
272
39
84
236
21
244
71
306
213
166
26
101
10
216
6
144
313
81
111
187
27
267
266
31
326
332
168
156
211
232
72
105
181
128
64
133
85
262
184
143
319
208
33
59
325
260
152
265
102
333
201
295
19
154
93
100
344
339
95
142
235
186
58
210
67
340
89
192
107
16
23
113
34
127
68
259
299
249
45
38
13
171
163
302
206
197
36
204
194
119
289
30
256
304
237
76
90
264
179
117
239
207
14
198
82
212
274
268
161
136
190
200
137
286
52
40
229
147
158
149
296
32
162
176
75
317
263
8
251
46
189
191
316
141
103
140
9
234
336
238
343
231
116
245
178
221
11
248
109
298
275
215
252
269
7
182
148
331
323
254
57
258
314
334
66
98
17
328
347
91
53
150
297
54
120
253
188
341
330
324
246
243
139
294
123
273
80
124
96
303
151
321
164
195
106
301
104
283
157
290
315
92
292
170
74
307
285
87
65
167
63
44
308
108
193
159
153
97
281
288
2
276
300
287
199
110
99
305
338
125
320
209
220
180
250
22
257
270
122
49
121
169
4
35
255
247
225
242
218
61
88
329
48
134
205
279
94
293
41
29
62
345
217
175
60
114
174
335
280
291
223
47
278
145
214
25
118
185
322
271
240
318
146
228
56
20
51
79
282
18
327
3
309
224
73
172
346
310
77
165
177
160
24
69
50
83
5
284
230
138
70
43
55
135
28

> <PUBCHEM_MMFF94_PARTIAL_CHARGES>
28
1 -0.18
14 0.27
15 0.27
16 0.72
17 0.36
18 -0.05
19 0.49
2 -0.81
20 -0.15
22 -0.3
23 0.11
24 -0.15
25 -0.15
26 0.16
3 -0.87
37 0.4
4 -0.62
44 0.15
45 0.15
46 0.27
47 0.15
48 0.15
49 0.15
5 -0.62
6 0.03
7 -0.57
8 0.27
9 0.37

> <PUBCHEM_EFFECTIVE_ROTOR_COUNT>
5.2

> <PUBCHEM_PHARMACOPHORE_FEATURES>
11
1 2 cation
1 3 donor
1 5 acceptor
1 6 cation
1 6 donor
1 7 acceptor
4 3 4 5 16 cation
5 6 18 21 22 23 rings
6 4 5 16 17 19 20 rings
6 7 21 23 24 25 26 rings
6 8 9 10 11 12 13 rings

> <PUBCHEM_HEAVY_ATOM_COUNT>
26

> <PUBCHEM_ATOM_DEF_STEREO_COUNT>
0

> <PUBCHEM_ATOM_UDEF_STEREO_COUNT>
2

> <PUBCHEM_BOND_DEF_STEREO_COUNT>
0

> <PUBCHEM_BOND_UDEF_STEREO_COUNT>
0

> <PUBCHEM_ISOTOPIC_ATOM_COUNT>
0

> <PUBCHEM_COMPONENT_COUNT>
1

> <PUBCHEM_CACTVS_TAUTO_COUNT>
16

> <PUBCHEM_CONFORMER_ID>
02F8599C00000001

> <PUBCHEM_MMFF94_ENERGY>
61.9556

> <PUBCHEM_FEATURE_SELFOVERLAP>
55.934

> <PUBCHEM_SHAPE_FINGERPRINT>
10369192 42 17027978988712563044
10764073 3 16979592376950162585
10928967 22 18129668487162278046
11595378 159 15339117952964320451
11991303 11 17757845428679119573
12363563 72 18409445869157710438
12422481 6 17914923975427061441
12553582 1 18341335573582324252
12596602 18 16486681584442671587
12623949 98 17537744444123374347
12788726 201 17976527322054586673
13544653 18 18410848850437257244
14363568 33 18194129731530880348
14790565 3 17763733687440531412
14844126 61 17910374114069102942
14957384 54 11527650939792771646
15081414 286 18338520845284922232
15361156 5 18340770313089699492
15842332 3 17558270097093562245
15927050 60 17186428587817184512
1813 80 18272662241679598901
19315092 285 16268788075347648871
20600515 1 17895462657611170780
20645477 70 18192976322115517725
20693207 138 17531240708036975045
20739085 24 18131364015500669942
21796203 349 18266752440211900160
22440779 20 17549028443969050506
23175994 123 18335135402054662751
23559900 14 17313934359658182437
3380486 145 18270943713743162180
3459 39 9188890248786559067
3737641 26 17987810605385199518
38695281 34 17833825354561330388
5309563 4 18412261722763612895
59025328 239 17771306951411539053
613672 6 18336815433967604290
81228 2 18193831548883695716
9709674 26 17983841299652527932

> <PUBCHEM_SHAPE_MULTIPOLES>
507.05
10.26
4.56
2.06
3.96
6.72
-0.66
-10.25
-2.45
-3.76
0.27
2.85
-1.32
2.13

> <PUBCHEM_SHAPE_SELFOVERLAP>
1092.576

> <PUBCHEM_SHAPE_VOLUME>
280.4

> <PUBCHEM_COORDINATE_TYPE>
2
5
10

$$$$
49830280
  -OEChem-05102415013D

 49 52  0     0  0  0  0  0  0999 V2000
    0.8492   -5.1639    0.1306 Cl  0  0  0  0  0  0  0  0  0  0  0  0
   -5.7775    0.6763   -0.8110 N   0  0  0  0  0  0  0  0  0  0  0  0
   -1.6141   -0.9776    0.8422 N   0  0  0  0  0  0  0  0  0  0  0  0
    0.6073   -0.7284    0.2166 N   0  0  0  0  0  0  0  0  0  0  0  0
   -0.3799   -2.9104    0.4845 N   0  0  0  0  0  0  0  0  0  0  0  0
    4.7497    0.2326   -1.3725 N   0  0  0  0  0  0  0  0  0  0  0  0
    4.9883    2.4103   -0.3705 N   0  0  0  0  0  0  0  0  0  0  0  0
   -4.5021    1.0699   -0.2128 C   0  0  0  0  0  0  0  0  0  0  0  0
   -1.8157    0.4566    0.9079 C   0  0  0  0  0  0  0  0  0  0  0  0
   -4.3532    0.4169    1.1648 C   0  0  0  0  0  0  0  0  0  0  0  0
   -3.3370    0.6901   -1.1329 C   0  0  0  0  0  0  0  0  0  0  0  0
   -3.0121    0.7734    1.8087 C   0  0  0  0  0  0  0  0  0  0  0  0
   -1.9868    1.0340   -0.5001 C   0  0  0  0  0  0  0  0  0  0  0  0
   -6.8842    0.9857    0.0939 C   0  0  0  0  0  0  0  0  0  0  0  0
   -5.9675    1.3455   -2.0976 C   0  0  0  0  0  0  0  0  0  0  0  0
   -0.4103   -1.5642    0.4988 C   0  0  0  0  0  0  0  0  0  0  0  0
    1.7672   -1.3342   -0.1121 C   0  0  0  0  0  0  0  0  0  0  0  0
    2.8631   -0.4605   -0.4180 C   0  0  0  0  0  0  0  0  0  0  0  0
    0.8102   -3.4493    0.1477 C   0  0  0  0  0  0  0  0  0  0  0  0
    1.9290   -2.7037   -0.1636 C   0  0  0  0  0  0  0  0  0  0  0  0
    3.1585    0.8389    0.0725 C   0  0  0  0  0  0  0  0  0  0  0  0
    3.8590   -0.8072   -1.3054 C   0  0  0  0  0  0  0  0  0  0  0  0
    4.3403    1.2425   -0.5420 C   0  0  0  0  0  0  0  0  0  0  0  0
    2.5604    1.7345    0.9738 C   0  0  0  0  0  0  0  0  0  0  0  0
    3.1898    2.9592    1.1889 C   0  0  0  0  0  0  0  0  0  0  0  0
    4.3683    3.2330    0.5075 C   0  0  0  0  0  0  0  0  0  0  0  0
   -4.4801    2.1609   -0.0708 H   0  0  0  0  0  0  0  0  0  0  0  0
   -0.9389    0.9208    1.3775 H   0  0  0  0  0  0  0  0  0  0  0  0
   -5.1196    0.7607    1.8678 H   0  0  0  0  0  0  0  0  0  0  0  0
   -4.4515   -0.6733    1.0879 H   0  0  0  0  0  0  0  0  0  0  0  0
   -3.3677   -0.3823   -1.3650 H   0  0  0  0  0  0  0  0  0  0  0  0
   -3.3789    1.2276   -2.0861 H   0  0  0  0  0  0  0  0  0  0  0  0
   -3.0080    1.8474    2.0365 H   0  0  0  0  0  0  0  0  0  0  0  0
   -2.9181    0.2480    2.7671 H   0  0  0  0  0  0  0  0  0  0  0  0
   -1.9058    2.1273   -0.4367 H   0  0  0  0  0  0  0  0  0  0  0  0
   -1.1838    0.7063   -1.1700 H   0  0  0  0  0  0  0  0  0  0  0  0
   -2.3925   -1.6021    1.0175 H   0  0  0  0  0  0  0  0  0  0  0  0
   -6.9274    0.2940    0.9411 H   0  0  0  0  0  0  0  0  0  0  0  0
   -6.8535    2.0179    0.4617 H   0  0  0  0  0  0  0  0  0  0  0  0
   -7.8458    0.8488   -0.4166 H   0  0  0  0  0  0  0  0  0  0  0  0
   -5.8416    2.4322   -2.0289 H   0  0  0  0  0  0  0  0  0  0  0  0
   -5.2975    0.9517   -2.8677 H   0  0  0  0  0  0  0  0  0  0  0  0
   -6.9759    1.1532   -2.4844 H   0  0  0  0  0  0  0  0  0  0  0  0
    2.8665   -3.1854   -0.4149 H   0  0  0  0  0  0  0  0  0  0  0  0
    4.0250   -1.6899   -1.9083 H   0  0  0  0  0  0  0  0  0  0  0  0
    5.5800    0.2533   -1.9481 H   0  0  0  0  0  0  0  0  0  0  0  0
    1.6410    1.4947    1.4974 H   0  0  0  0  0  0  0  0  0  0  0  0
    2.7668    3.6835    1.8767 H   0  0  0  0  0  0  0  0  0  0  0  0
    4.8726    4.1830    0.6634 H   0  0  0  0  0  0  0  0  0  0  0  0
  1 19  1  0  0  0  0
  2  8  1  0  0  0  0
  2 14  1  0  0  0  0
  2 15  1  0  0  0  0
  3  9  1  0  0  0  0
  3 16  1  0  0  0  0
  3 37  1  0  0  0  0
  4 16  2  0  0  0  0
  4 17  1  0  0  0  0
  5 16  1  0  0  0  0
  5 19  2  0  0  0  0
  6 22  1  0  0  0  0
  6 23  1  0  0  0  0
  6 46  1  0  0  0  0
  7 23  1  0  0  0  0
  7 26  2  0  0  0  0
  8 10  1  0  0  0  0
  8 11  1  0  0  0  0
  8 27  1  0  0  0  0
  9 12  1  0  0  0  0
  9 13  1  0  0  0  0
  9 28  1  0  0  0  0
 10 12  1  0  0  0  0
 10 29  1  0  0  0  0
 10 30  1  0  0  0  0
 11 13  1  0  0  0  0
 11 31  1  0  0  0  0
 11 32  1  0  0  0  0
 12 33  1  0  0  0  0
 12 34  1  0  0  0  0
 13 35  1  0  0  0  0
 13 36  1  0  0  0  0
 14 38  1  0  0  0  0
 14 39  1  0  0  0  0
 14 40  1  0  0  0  0
 15 41  1  0  0  0  0
 15 42  1  0  0  0  0
 15 43  1  0  0  0  0
 17 18  1  0  0  0  0
 17 20  2  0  0  0  0
 18 21  1  0  0  0  0
 18 22  2  0  0  0  0
 19 20  1  0  0  0  0
 20 44  1  0  0  0  0
 21 23  2  0  0  0  0
 21 24  1  0  0  0  0
 22 45  1  0  0  0  0
 24 25  2  0  0  0  0
 24 47  1  0  0  0  0
 25 26  1  0  0  0  0
 25 48  1  0  0  0  0
 26 49  1  0  0  0  0
M  END
> <PUBCHEM_COMPOUND_CID>
49830280

> <PUBCHEM_CONFORMER_RMSD>
0.8

> <PUBCHEM_CONFORMER_DIVERSEORDER>
2
120
102
114
40
24
6
35
80
93
53
136
143
111
78
77
138
90
126
49
75
63
91
110
137
119
142
42
58
123
34
105
87
109
101
55
89
113
45
47
122
118
106
104
30
26
74
76
128
85
115
86
71
144
129
100
130
56
117
72
82
79
23
43
96
135
54
112
44
133
83
146
29
92
46
84
132
1
125
108
99
121
139
97
33
8
145
127
131
134
124
60
94
73
103
81
3
116
50
36
141
52
107
17
11
95
65
5
70
37
10
68
69
57
51
140
64
41
18
32
61
14
12
31
21
62
98
67
88
27
66
19
48
59
22
4
15
25
16
7
20
38
13
9
39
28

> <PUBCHEM_MMFF94_PARTIAL_CHARGES>
28
1 -0.18
14 0.27
15 0.27
16 0.72
17 0.36
18 -0.05
19 0.49
2 -0.81
20 -0.15
22 -0.3
23 0.11
24 -0.15
25 -0.15
26 0.16
3 -0.87
37 0.4
4 -0.62
44 0.15
45 0.15
46 0.27
47 0.15
48 0.15
49 0.15
5 -0.62
6 0.03
7 -0.57
8 0.27
9 0.37

> <PUBCHEM_EFFECTIVE_ROTOR_COUNT>
5.2

> <PUBCHEM_PHARMACOPHORE_FEATURES>
11
1 2 cation
1 3 donor
1 5 acceptor
1 6 cation
1 6 donor
1 7 acceptor
4 3 4 5 16 cation
5 6 18 21 22 23 rings
6 4 5 16 17 19 20 rings
6 7 21 23 24 25 26 rings
6 8 9 10 11 12 13 rings

> <PUBCHEM_HEAVY_ATOM_COUNT>
26

> <PUBCHEM_ATOM_DEF_STEREO_COUNT>
0

> <PUBCHEM_ATOM_UDEF_STEREO_COUNT>
0

> <PUBCHEM_BOND_DEF_STEREO_COUNT>
0

> <PUBCHEM_BOND_UDEF_STEREO_COUNT>
0

> <PUBCHEM_ISOTOPIC_ATOM_COUNT>
0

> <PUBCHEM_COMPONENT_COUNT>
1

> <PUBCHEM_CACTVS_TAUTO_COUNT>
16

> <PUBCHEM_CONFORMER_ID>
02F8598800000002

> <PUBCHEM_MMFF94_ENERGY>
61.1604

> <PUBCHEM_FEATURE_SELFOVERLAP>
55.934

> <PUBCHEM_SHAPE_FINGERPRINT>
10165383 225 18261121768351906420
10411042 1 17617943534711796842
10498660 4 18408889567813767192
10693767 8 17843972442536899534
11135609 149 17627511532541485582
11211813 74 18263072233872891533
12403259 415 18336276733246243507
12730499 353 18408610244905724787
12769317 202 18411981343092499288
12788726 201 17203049561511565793
12969540 114 18335413586991654621
13034934 17 18187938317240725187
13540713 4 17913222137801984484
1361 2 18409443722122708773
13773456 73 18187629311259896609
13955234 65 18264768766506130915
14528608 73 18413106152420754413
14681490 219 18131350795819017801
14848178 96 18412829118129212376
14931854 50 18202014204917879668
15003188 100 18411702109946747117
19319366 153 18271798012982721727
20567600 254 18333726927195426924
21033648 29 18337672048136403992
21049683 118 18191004876292164010
21968339 14 18265882579968196646
22122407 14 17983600519607291137
221357 26 18200882781519427652
23522609 53 17774450378822118985
23536364 44 17691709800516166918
23559900 14 16878514397447079051
238 59 18342738472994092042
23845131 108 18335421300516210619
24771293 8 17985264063652433330
335352 9 18412553107204996582
341906 21 16588308267688243701
376196 1 18261110772750890443
43658 37 18410008840527991219
4371632 12 16340877654086580696
437795 51 18343025536493252209
469060 322 17314500629505701383
474 4 18342737424937591592
495365 180 18410004429722997090
53794403 172 18119250803172294453
56633871 153 10737280260298121177
6327066 14 18262800795348092780
633830 44 18059028210460579600
6371009 1 18341326713260419776
6442390 28 18336833090557240806
7808743 9 17973454483977662004

> <PUBCHEM_SHAPE_MULTIPOLES>
507.05
13.16
4.52
1.38
17.01
5.85
-0.18
-12.07
-4.39
-5.91
0.91
1.16
-0.57
1.33

> <PUBCHEM_SHAPE_SELFOVERLAP>
1092.5

> <PUBCHEM_SHAPE_VOLUME>
280

> <PUBCHEM_COORDINATE_TYPE>
2
5
10

$$$$
49830273
  -OEChem-05102415023D

 43 46  0     0  0  0  0  0  0999 V2000
    1.3911    5.2573    0.1921 Cl  0  0  0  0  0  0  0  0  0  0  0  0
   -2.0633    1.7734    0.3327 N   0  0  0  0  0  0  0  0  0  0  0  0
   -5.3033   -2.7803   -0.6187 N   0  0  0  0  0  0  0  0  0  0  0  0
    0.1062    1.0072    0.0333 N   0  0  0  0  0  0  0  0  0  0  0  0
   -0.3711    3.3588    0.2570 N   0  0  0  0  0  0  0  0  0  0  0  0
    4.0999   -0.9010   -0.9719 N   0  0  0  0  0  0  0  0  0  0  0  0
    3.6565   -3.0855   -0.0584 N   0  0  0  0  0  0  0  0  0  0  0  0
   -2.6010    0.4305    0.2944 C   0  0  0  0  0  0  0  0  0  0  0  0
   -4.7220   -1.4391   -0.5732 C   0  0  0  0  0  0  0  0  0  0  0  0
   -2.6938   -0.0471   -1.1564 C   0  0  0  0  0  0  0  0  0  0  0  0
   -3.9702    0.4117    0.9766 C   0  0  0  0  0  0  0  0  0  0  0  0
   -3.3471   -1.4254   -1.2518 C   0  0  0  0  0  0  0  0  0  0  0  0
   -4.6251   -0.9657    0.8815 C   0  0  0  0  0  0  0  0  0  0  0  0
   -0.7181    2.0586    0.2029 C   0  0  0  0  0  0  0  0  0  0  0  0
    1.4122    1.3220   -0.0922 C   0  0  0  0  0  0  0  0  0  0  0  0
    2.3068    0.2150   -0.2718 C   0  0  0  0  0  0  0  0  0  0  0  0
    2.2055   -1.1242    0.1895 C   0  0  0  0  0  0  0  0  0  0  0  0
    1.8964    2.6136   -0.0541 C   0  0  0  0  0  0  0  0  0  0  0  0
    0.9495    3.6014    0.1244 C   0  0  0  0  0  0  0  0  0  0  0  0
    3.3388   -1.7932   -0.2638 C   0  0  0  0  0  0  0  0  0  0  0  0
    3.4825    0.3228   -0.9829 C   0  0  0  0  0  0  0  0  0  0  0  0
    1.2797   -1.8607    0.9463 C   0  0  0  0  0  0  0  0  0  0  0  0
    1.5596   -3.2043    1.1890 C   0  0  0  0  0  0  0  0  0  0  0  0
    2.7305   -3.7458    0.6754 C   0  0  0  0  0  0  0  0  0  0  0  0
   -1.9508   -0.2508    0.8595 H   0  0  0  0  0  0  0  0  0  0  0  0
   -5.3897   -0.7609   -1.1199 H   0  0  0  0  0  0  0  0  0  0  0  0
   -1.7007   -0.0938   -1.6180 H   0  0  0  0  0  0  0  0  0  0  0  0
   -3.2752    0.6705   -1.7506 H   0  0  0  0  0  0  0  0  0  0  0  0
   -4.6320    1.1577    0.5168 H   0  0  0  0  0  0  0  0  0  0  0  0
   -3.8685    0.6968    2.0311 H   0  0  0  0  0  0  0  0  0  0  0  0
   -2.6872   -2.1684   -0.7847 H   0  0  0  0  0  0  0  0  0  0  0  0
   -3.4442   -1.7061   -2.3078 H   0  0  0  0  0  0  0  0  0  0  0  0
   -5.6240   -0.9203    1.3328 H   0  0  0  0  0  0  0  0  0  0  0  0
   -4.0410   -1.6821    1.4745 H   0  0  0  0  0  0  0  0  0  0  0  0
   -2.6958    2.5616    0.4105 H   0  0  0  0  0  0  0  0  0  0  0  0
   -6.2389   -2.7630   -0.2149 H   0  0  0  0  0  0  0  0  0  0  0  0
   -5.4131   -3.0736   -1.5885 H   0  0  0  0  0  0  0  0  0  0  0  0
    2.9479    2.8602   -0.1417 H   0  0  0  0  0  0  0  0  0  0  0  0
    3.9445    1.1473   -1.5093 H   0  0  0  0  0  0  0  0  0  0  0  0
    4.9807   -1.1140   -1.4193 H   0  0  0  0  0  0  0  0  0  0  0  0
    0.3734   -1.4130    1.3403 H   0  0  0  0  0  0  0  0  0  0  0  0
    0.8753   -3.8141    1.7690 H   0  0  0  0  0  0  0  0  0  0  0  0
    2.9646   -4.7918    0.8552 H   0  0  0  0  0  0  0  0  0  0  0  0
  1 19  1  0  0  0  0
  2  8  1  0  0  0  0
  2 14  1  0  0  0  0
  2 35  1  0  0  0  0
  3  9  1  0  0  0  0
  3 36  1  0  0  0  0
  3 37  1  0  0  0  0
  4 14  2  0  0  0  0
  4 15  1  0  0  0  0
  5 14  1  0  0  0  0
  5 19  2  0  0  0  0
  6 20  1  0  0  0  0
  6 21  1  0  0  0  0
  6 40  1  0  0  0  0
  7 20  1  0  0  0  0
  7 24  2  0  0  0  0
  8 10  1  0  0  0  0
  8 11  1  0  0  0  0
  8 25  1  0  0  0  0
  9 12  1  0  0  0  0
  9 13  1  0  0  0  0
  9 26  1  0  0  0  0
 10 12  1  0  0  0  0
 10 27  1  0  0  0  0
 10 28  1  0  0  0  0
 11 13  1  0  0  0  0
 11 29  1  0  0  0  0
 11 30  1  0  0  0  0
 12 31  1  0  0  0  0
 12 32  1  0  0  0  0
 13 33  1  0  0  0  0
 13 34  1  0  0  0  0
 15 16  1  0  0  0  0
 15 18  2  0  0  0  0
 16 17  1  0  0  0  0
 16 21  2  0  0  0  0
 17 20  2  0  0  0  0
 17 22  1  0  0  0  0
 18 19  1  0  0  0  0
 18 38  1  0  0  0  0
 21 39  1  0  0  0  0
 22 23  2  0  0  0  0
 22 41  1  0  0  0  0
 23 24  1  0  0  0  0
 23 42  1  0  0  0  0
 24 43  1  0  0  0  0
M  END
> <PUBCHEM_COMPOUND_CID>
49830273

> <PUBCHEM_CONFORMER_RMSD>
0.8

> <PUBCHEM_CONFORMER_DIVERSEORDER>
1
36
40
44
10
42
33
8
50
32
29
54
61
22
26
39
12
2
57
30
45
60
35
65
55
37
31
52
64
6
62
28
3
66
21
11
58
19
53
46
25
27
34
38
49
20
47
43
7
24
4
51
18
23
63
5
13
16
56
48
17
59
9
14
41
15

> <PUBCHEM_MMFF94_PARTIAL_CHARGES>
28
1 -0.18
14 0.72
15 0.36
16 -0.05
18 -0.15
19 0.49
2 -0.87
20 0.11
21 -0.3
22 -0.15
23 -0.15
24 0.16
3 -0.99
35 0.4
36 0.36
37 0.36
38 0.15
39 0.15
4 -0.62
40 0.27
41 0.15
42 0.15
43 0.15
5 -0.62
6 0.03
7 -0.57
8 0.37
9 0.27

> <PUBCHEM_EFFECTIVE_ROTOR_COUNT>
4.2

> <PUBCHEM_PHARMACOPHORE_FEATURES>
12
1 2 donor
1 3 cation
1 3 donor
1 5 acceptor
1 6 cation
1 6 donor
1 7 acceptor
4 2 4 5 14 cation
5 6 16 17 20 21 rings
6 4 5 14 15 18 19 rings
6 7 17 20 22 23 24 rings
6 8 9 10 11 12 13 rings

> <PUBCHEM_HEAVY_ATOM_COUNT>
24

> <PUBCHEM_ATOM_DEF_STEREO_COUNT>
0

> <PUBCHEM_ATOM_UDEF_STEREO_COUNT>
0

> <PUBCHEM_BOND_DEF_STEREO_COUNT>
0

> <PUBCHEM_BOND_UDEF_STEREO_COUNT>
0

> <PUBCHEM_ISOTOPIC_ATOM_COUNT>
0

> <PUBCHEM_COMPONENT_COUNT>
1

> <PUBCHEM_CACTVS_TAUTO_COUNT>
16

> <PUBCHEM_CONFORMER_ID>
02F8598100000001

> <PUBCHEM_MMFF94_ENERGY>
44.9559

> <PUBCHEM_FEATURE_SELFOVERLAP>
61.009

> <PUBCHEM_SHAPE_FINGERPRINT>
10616163 171 17761779468477072554
1100329 8 18122623018777903056
114674 6 18263923413572379883
11578080 2 17915439636994696656
11991303 11 17177144281255983620
12107183 9 18271260313885774145
12553582 1 18339358569881462287
12788726 201 17830451674655118913
13004483 165 18048877394686000889
13140716 1 18049723211174571512
13533116 47 18127411383701589727
13692114 37 17262707189022133816
138480 1 18410573998073536241
13911987 19 17971219103786902980
14767858 380 18262820544045005052
14787075 74 18410019849262478636
14844126 61 17687459070681780058
14863182 85 18193274328511644844
15537594 2 18339378382760842515
19319366 153 18261398905222361158
19427546 62 17472977776039793813
20028762 73 18055349395284097886
20291156 8 18339642239681361251
20645477 70 18119517976455684181
20715895 44 11929875945523472134
20775438 99 17760597691436659037
21133410 38 17404888311098790755
2255824 54 18268148836642235533
229767 44 15956375714681088891
23379529 103 17839472085377812830
235170 7 16660368073523728415
23559900 14 18339069480518774449
23598288 3 18049728412443400301
23728640 28 17329986898131130840
238 59 18190463946541045091
314173 41 18411986840698253853
4283 87 18340766026659765559
46194498 28 17386008433522353895
463206 1 18335147470512468195
5265222 85 16177642534762080438
7097593 13 18413113844659897121
7970288 3 18341050731230934615
9777508 108 16468113311546819857

> <PUBCHEM_SHAPE_MULTIPOLES>
465.89
8.83
5.86
1.05
10.96
4.58
0.06
-7.91
1.51
-5.32
-1.27
0.39
-0.47
-1.05

> <PUBCHEM_SHAPE_SELFOVERLAP>
1011.978

> <PUBCHEM_SHAPE_VOLUME>
254.1

> <PUBCHEM_COORDINATE_TYPE>
2
5
10

$$$$
49830307
  -OEChem-05102415023D

 48 51  0     1  0  0  0  0  0999 V2000
    4.0700   -4.3065   -0.2641 Cl  0  0  0  0  0  0  0  0  0  0  0  0
   -4.6384    1.9056   -1.6084 O   0  0  0  0  0  0  0  0  0  0  0  0
   -0.5854   -2.8804    0.3657 N   0  0  0  0  0  0  0  0  0  0  0  0
   -3.0845    0.7118   -0.3519 N   0  0  0  0  0  0  0  0  0  0  0  0
    0.9444   -1.1640    0.0432 N   0  0  0  0  0  0  0  0  0  0  0  0
    1.6384   -3.4717    0.0583 N   0  0  0  0  0  0  0  0  0  0  0  0
    3.4916    2.4605   -0.9481 N   0  0  0  0  0  0  0  0  0  0  0  0
    2.1683    4.1151    0.1987 N   0  0  0  0  0  0  0  0  0  0  0  0
   -1.6894   -1.9515    0.4868 C   0  0  1  0  0  0  0  0  0  0  0  0
   -3.3776   -0.6033   -0.8742 C   0  0  1  0  0  0  0  0  0  0  0  0
   -2.1225   -1.4827   -0.9074 C   0  0  0  0  0  0  0  0  0  0  0  0
   -2.8406   -2.6280    1.2325 C   0  0  0  0  0  0  0  0  0  0  0  0
   -4.5109   -1.2658   -0.0856 C   0  0  0  0  0  0  0  0  0  0  0  0
   -4.0699   -1.7269    1.3031 C   0  0  0  0  0  0  0  0  0  0  0  0
    0.7224   -2.4883    0.1454 C   0  0  0  0  0  0  0  0  0  0  0  0
   -3.7444    1.8546   -0.7678 C   0  0  0  0  0  0  0  0  0  0  0  0
   -3.2618    3.0841   -0.0458 C   0  0  0  0  0  0  0  0  0  0  0  0
    2.2309   -0.8170   -0.1691 C   0  0  0  0  0  0  0  0  0  0  0  0
    2.4875    0.5898   -0.2827 C   0  0  0  0  0  0  0  0  0  0  0  0
    2.9035   -3.0540   -0.1543 C   0  0  0  0  0  0  0  0  0  0  0  0
    3.2624   -1.7272   -0.2777 C   0  0  0  0  0  0  0  0  0  0  0  0
    1.8183    1.6906    0.3147 C   0  0  0  0  0  0  0  0  0  0  0  0
    3.5121    1.0941   -1.0544 C   0  0  0  0  0  0  0  0  0  0  0  0
    2.4686    2.8418   -0.1203 C   0  0  0  0  0  0  0  0  0  0  0  0
    0.7260    1.8541    1.1821 C   0  0  0  0  0  0  0  0  0  0  0  0
    0.3717    3.1523    1.5451 C   0  0  0  0  0  0  0  0  0  0  0  0
    1.1094    4.2127    1.0359 C   0  0  0  0  0  0  0  0  0  0  0  0
   -1.3802   -1.0877    1.0892 H   0  0  0  0  0  0  0  0  0  0  0  0
   -3.7218   -0.4671   -1.9073 H   0  0  0  0  0  0  0  0  0  0  0  0
   -1.3083   -0.9409   -1.4040 H   0  0  0  0  0  0  0  0  0  0  0  0
   -2.3292   -2.3623   -1.5330 H   0  0  0  0  0  0  0  0  0  0  0  0
   -2.5242   -2.8966    2.2480 H   0  0  0  0  0  0  0  0  0  0  0  0
   -3.1120   -3.5685    0.7346 H   0  0  0  0  0  0  0  0  0  0  0  0
   -4.8681   -2.1393   -0.6462 H   0  0  0  0  0  0  0  0  0  0  0  0
   -5.3643   -0.5842    0.0123 H   0  0  0  0  0  0  0  0  0  0  0  0
   -3.8498   -0.8545    1.9305 H   0  0  0  0  0  0  0  0  0  0  0  0
   -4.8920   -2.2658    1.7878 H   0  0  0  0  0  0  0  0  0  0  0  0
   -0.7673   -3.8771    0.3953 H   0  0  0  0  0  0  0  0  0  0  0  0
   -2.3975    0.7905    0.3923 H   0  0  0  0  0  0  0  0  0  0  0  0
   -3.2080    2.8991    1.0308 H   0  0  0  0  0  0  0  0  0  0  0  0
   -2.2717    3.3587   -0.4196 H   0  0  0  0  0  0  0  0  0  0  0  0
   -3.9545    3.9112   -0.2242 H   0  0  0  0  0  0  0  0  0  0  0  0
    4.2961   -1.4427   -0.4347 H   0  0  0  0  0  0  0  0  0  0  0  0
    4.2559    0.6200   -1.6807 H   0  0  0  0  0  0  0  0  0  0  0  0
    4.1310    3.0913   -1.4113 H   0  0  0  0  0  0  0  0  0  0  0  0
    0.1672    1.0084    1.5687 H   0  0  0  0  0  0  0  0  0  0  0  0
   -0.4650    3.3294    2.2123 H   0  0  0  0  0  0  0  0  0  0  0  0
    0.8466    5.2316    1.3082 H   0  0  0  0  0  0  0  0  0  0  0  0
  1 20  1  0  0  0  0
  2 16  2  0  0  0  0
  3  9  1  0  0  0  0
  3 15  1  0  0  0  0
  3 38  1  0  0  0  0
  4 10  1  0  0  0  0
  4 16  1  0  0  0  0
  4 39  1  0  0  0  0
  5 15  2  0  0  0  0
  5 18  1  0  0  0  0
  6 15  1  0  0  0  0
  6 20  2  0  0  0  0
  7 23  1  0  0  0  0
  7 24  1  0  0  0  0
  7 45  1  0  0  0  0
  8 24  1  0  0  0  0
  8 27  2  0  0  0  0
  9 11  1  0  0  0  0
  9 12  1  0  0  0  0
  9 28  1  0  0  0  0
 10 11  1  0  0  0  0
 10 13  1  0  0  0  0
 10 29  1  0  0  0  0
 11 30  1  0  0  0  0
 11 31  1  0  0  0  0
 12 14  1  0  0  0  0
 12 32  1  0  0  0  0
 12 33  1  0  0  0  0
 13 14  1  0  0  0  0
 13 34  1  0  0  0  0
 13 35  1  0  0  0  0
 14 36  1  0  0  0  0
 14 37  1  0  0  0  0
 16 17  1  0  0  0  0
 17 40  1  0  0  0  0
 17 41  1  0  0  0  0
 17 42  1  0  0  0  0
 18 19  1  0  0  0  0
 18 21  2  0  0  0  0
 19 22  1  0  0  0  0
 19 23  2  0  0  0  0
 20 21  1  0  0  0  0
 21 43  1  0  0  0  0
 22 24  2  0  0  0  0
 22 25  1  0  0  0  0
 23 44  1  0  0  0  0
 25 26  2  0  0  0  0
 25 46  1  0  0  0  0
 26 27  1  0  0  0  0
 26 47  1  0  0  0  0
 27 48  1  0  0  0  0
M  END
> <PUBCHEM_COMPOUND_CID>
49830307

> <PUBCHEM_CONFORMER_RMSD>
1

> <PUBCHEM_CONFORMER_DIVERSEORDER>
1
55
219
128
193
190
66
260
202
52
212
136
65
214
82
78
148
217
85
233
194
259
132
9
120
265
223
133
240
152
15
67
231
103
106
198
178
69
227
147
13
115
256
271
83
208
229
258
119
146
246
38
29
70
230
157
158
37
89
24
169
68
261
54
168
171
248
64
135
118
141
7
140
61
40
117
59
116
162
137
166
222
234
179
5
144
104
195
129
273
76
215
205
36
39
122
267
170
268
191
63
159
150
184
43
110
74
239
206
80
56
139
58
186
201
237
32
235
189
247
114
14
101
73
220
124
126
216
100
60
88
2
204
10
207
238
172
134
102
161
31
176
6
96
255
145
94
252
77
164
156
149
175
49
125
253
187
99
272
270
111
241
113
71
200
19
127
236
121
263
8
251
243
165
3
266
97
254
196
155
225
143
180
72
30
57
46
213
244
242
177
221
226
84
249
250
209
12
174
224
203
109
218
167
75
62
131
232
18
199
107
142
47
123
264
228
112
86
173
27
105
192
245
95
108
45
151
153
154
185
262
90
257
211
22
79
50
92
33
16
93
182
44
188
53
163
26
183
81
23
34
210
42
20
21
130
48
25
35
11
91
138
181
98
269
160
17
87
197
28
41
4
51

> <PUBCHEM_MMFF94_PARTIAL_CHARGES>
30
1 -0.18
10 0.3
15 0.72
16 0.57
17 0.06
18 0.36
19 -0.05
2 -0.57
20 0.49
21 -0.15
23 -0.3
24 0.11
25 -0.15
26 -0.15
27 0.16
3 -0.87
38 0.4
39 0.37
4 -0.73
43 0.15
44 0.15
45 0.27
46 0.15
47 0.15
48 0.15
5 -0.62
6 -0.62
7 0.03
8 -0.57
9 0.37

> <PUBCHEM_EFFECTIVE_ROTOR_COUNT>
6.2

> <PUBCHEM_PHARMACOPHORE_FEATURES>
12
1 2 acceptor
1 3 donor
1 4 donor
1 6 acceptor
1 7 cation
1 7 donor
1 8 acceptor
4 3 5 6 15 cation
5 7 19 22 23 24 rings
6 5 6 15 18 20 21 rings
6 8 22 24 25 26 27 rings
6 9 10 11 12 13 14 rings

> <PUBCHEM_HEAVY_ATOM_COUNT>
27

> <PUBCHEM_ATOM_DEF_STEREO_COUNT>
0

> <PUBCHEM_ATOM_UDEF_STEREO_COUNT>
2

> <PUBCHEM_BOND_DEF_STEREO_COUNT>
0

> <PUBCHEM_BOND_UDEF_STEREO_COUNT>
0

> <PUBCHEM_ISOTOPIC_ATOM_COUNT>
0

> <PUBCHEM_COMPONENT_COUNT>
1

> <PUBCHEM_CACTVS_TAUTO_COUNT>
32

> <PUBCHEM_CONFORMER_ID>
02F859A300000001

> <PUBCHEM_MMFF94_ENERGY>
54.0377

> <PUBCHEM_FEATURE_SELFOVERLAP>
61.009

> <PUBCHEM_SHAPE_FINGERPRINT>
10165383 225 17903373828382317878
10366900 7 18265334095944871231
10498660 4 17904188579673474119
10871710 139 17187569343397796737
1100329 8 18122348969229870129
11513181 2 16689624695201952687
12293681 4 17978513031433143711
12769317 202 18196656408966458610
12788726 201 17617372883871055386
13122387 1 18411136901109657125
13402501 40 17979077407431420657
1361 2 15167979638042752280
138480 1 18411984637454117778
140371 6 17978515234941303294
14114211 68 17973191644066963708
14114211 80 17473295508823922993
14466204 15 18339071709654027304
14866123 147 16752687158559112058
14931854 50 17905320733031568917
15322687 12 18118956997913747197
17138139 8 16612464297389987788
17921350 177 18131355223554812228
19930381 70 18122902290367871123
20567600 299 18341320150238706526
20775438 99 17694453326956966895
221357 26 18341619260440870487
23536364 44 18197245623040372156
23559900 14 18337942407853673431
238 59 18126827499322979855
3187 122 15316020903131143410
3524813 1 18122912198324504065
437795 70 16833765184439870175
463206 1 18123757443614975984
6700243 42 15600096165087079332
7808743 9 17038388155650489532

> <PUBCHEM_SHAPE_MULTIPOLES>
521.76
8.46
6.54
1.18
6.02
1.99
-0.1
-2.4
2.31
-4.78
-1.38
0.75
0.47
1.31

> <PUBCHEM_SHAPE_SELFOVERLAP>
1125.111

> <PUBCHEM_SHAPE_VOLUME>
287.2

> <PUBCHEM_COORDINATE_TYPE>
2
5
10

$$$$
49830297
  -OEChem-05102415023D

 39 42  0     0  0  0  0  0  0999 V2000
    0.8765   -4.9491   -0.3707 Cl  0  0  0  0  0  0  0  0  0  0  0  0
    4.8558    2.1223    0.9416 O   0  0  0  0  0  0  0  0  0  0  0  0
    2.5961   -0.3538   -0.5083 N   0  0  0  0  0  0  0  0  0  0  0  0
    0.3178   -0.5489   -0.1126 N   0  0  0  0  0  0  0  0  0  0  0  0
    1.7048   -2.4946   -0.4264 N   0  0  0  0  0  0  0  0  0  0  0  0
   -4.0616   -0.4650    1.0799 N   0  0  0  0  0  0  0  0  0  0  0  0
   -4.5949    1.7197    0.2160 N   0  0  0  0  0  0  0  0  0  0  0  0
    2.5387    1.0935   -0.4487 C   0  0  0  0  0  0  0  0  0  0  0  0
    2.4900    1.5619    1.0070 C   0  0  0  0  0  0  0  0  0  0  0  0
    3.7443    1.6918   -1.1753 C   0  0  0  0  0  0  0  0  0  0  0  0
    3.8481    1.4480    1.6934 C   0  0  0  0  0  0  0  0  0  0  0  0
    5.0248    1.5575   -0.3575 C   0  0  0  0  0  0  0  0  0  0  0  0
    1.4921   -1.1675   -0.3411 C   0  0  0  0  0  0  0  0  0  0  0  0
   -1.9989   -0.7331    0.2898 C   0  0  0  0  0  0  0  0  0  0  0  0
   -0.7389   -1.3732    0.0435 C   0  0  0  0  0  0  0  0  0  0  0  0
   -2.4772    0.5345   -0.1358 C   0  0  0  0  0  0  0  0  0  0  0  0
   -3.7653    0.6708    0.3733 C   0  0  0  0  0  0  0  0  0  0  0  0
   -2.9949   -1.3249    1.0361 C   0  0  0  0  0  0  0  0  0  0  0  0
   -0.6541   -2.7491   -0.0209 C   0  0  0  0  0  0  0  0  0  0  0  0
    0.6056   -3.2591   -0.2608 C   0  0  0  0  0  0  0  0  0  0  0  0
   -1.9686    1.5970   -0.9003 C   0  0  0  0  0  0  0  0  0  0  0  0
   -2.7863    2.7088   -1.0946 C   0  0  0  0  0  0  0  0  0  0  0  0
   -4.0539    2.7125   -0.5280 C   0  0  0  0  0  0  0  0  0  0  0  0
    1.6405    1.4422   -0.9740 H   0  0  0  0  0  0  0  0  0  0  0  0
    2.2004    2.6210    1.0057 H   0  0  0  0  0  0  0  0  0  0  0  0
    1.7345    1.0251    1.5903 H   0  0  0  0  0  0  0  0  0  0  0  0
    3.8791    1.2343   -2.1621 H   0  0  0  0  0  0  0  0  0  0  0  0
    3.5493    2.7605   -1.3331 H   0  0  0  0  0  0  0  0  0  0  0  0
    4.1386    0.4007    1.8369 H   0  0  0  0  0  0  0  0  0  0  0  0
    3.8031    1.9143    2.6828 H   0  0  0  0  0  0  0  0  0  0  0  0
    5.3425    0.5128   -0.2642 H   0  0  0  0  0  0  0  0  0  0  0  0
    5.8361    2.1012   -0.8521 H   0  0  0  0  0  0  0  0  0  0  0  0
    3.4886   -0.8146   -0.6425 H   0  0  0  0  0  0  0  0  0  0  0  0
   -3.0546   -2.2735    1.5527 H   0  0  0  0  0  0  0  0  0  0  0  0
   -1.5083   -3.4061    0.0916 H   0  0  0  0  0  0  0  0  0  0  0  0
   -4.9326   -0.6400    1.5615 H   0  0  0  0  0  0  0  0  0  0  0  0
   -0.9757    1.5677   -1.3364 H   0  0  0  0  0  0  0  0  0  0  0  0
   -2.4383    3.5541   -1.6785 H   0  0  0  0  0  0  0  0  0  0  0  0
   -4.7049    3.5711   -0.6697 H   0  0  0  0  0  0  0  0  0  0  0  0
  1 20  1  0  0  0  0
  2 11  1  0  0  0  0
  2 12  1  0  0  0  0
  3  8  1  0  0  0  0
  3 13  1  0  0  0  0
  3 33  1  0  0  0  0
  4 13  2  0  0  0  0
  4 15  1  0  0  0  0
  5 13  1  0  0  0  0
  5 20  2  0  0  0  0
  6 17  1  0  0  0  0
  6 18  1  0  0  0  0
  6 36  1  0  0  0  0
  7 17  1  0  0  0  0
  7 23  2  0  0  0  0
  8  9  1  0  0  0  0
  8 10  1  0  0  0  0
  8 24  1  0  0  0  0
  9 11  1  0  0  0  0
  9 25  1  0  0  0  0
  9 26  1  0  0  0  0
 10 12  1  0  0  0  0
 10 27  1  0  0  0  0
 10 28  1  0  0  0  0
 11 29  1  0  0  0  0
 11 30  1  0  0  0  0
 12 31  1  0  0  0  0
 12 32  1  0  0  0  0
 14 15  1  0  0  0  0
 14 16  1  0  0  0  0
 14 18  2  0  0  0  0
 15 19  2  0  0  0  0
 16 17  2  0  0  0  0
 16 21  1  0  0  0  0
 18 34  1  0  0  0  0
 19 20  1  0  0  0  0
 19 35  1  0  0  0  0
 21 22  2  0  0  0  0
 21 37  1  0  0  0  0
 22 23  1  0  0  0  0
 22 38  1  0  0  0  0
 23 39  1  0  0  0  0
M  END
> <PUBCHEM_COMPOUND_CID>
49830297

> <PUBCHEM_CONFORMER_RMSD>
0.8

> <PUBCHEM_CONFORMER_DIVERSEORDER>
1
21
43
18
56
5
46
27
6
13
14
35
45
12
47
8
24
22
20
55
51
30
10
33
48
9
41
44
31
57
42
11
34
3
28
54
26
49
52
7
38
23
53
36
17
32
40
37
2
39
4
16
29
50
19
15
25

> <PUBCHEM_MMFF94_PARTIAL_CHARGES>
27
1 -0.18
11 0.28
12 0.28
13 0.72
14 -0.05
15 0.36
17 0.11
18 -0.3
19 -0.15
2 -0.56
20 0.49
21 -0.15
22 -0.15
23 0.16
3 -0.87
33 0.4
34 0.15
35 0.15
36 0.27
37 0.15
38 0.15
39 0.15
4 -0.62
5 -0.62
6 0.03
7 -0.57
8 0.37

> <PUBCHEM_EFFECTIVE_ROTOR_COUNT>
4.2

> <PUBCHEM_PHARMACOPHORE_FEATURES>
11
1 2 acceptor
1 3 donor
1 5 acceptor
1 6 cation
1 6 donor
1 7 acceptor
4 3 4 5 13 cation
5 6 14 16 17 18 rings
6 2 8 9 10 11 12 rings
6 4 5 13 15 19 20 rings
6 7 16 17 21 22 23 rings

> <PUBCHEM_HEAVY_ATOM_COUNT>
23

> <PUBCHEM_ATOM_DEF_STEREO_COUNT>
0

> <PUBCHEM_ATOM_UDEF_STEREO_COUNT>
0

> <PUBCHEM_BOND_DEF_STEREO_COUNT>
0

> <PUBCHEM_BOND_UDEF_STEREO_COUNT>
0

> <PUBCHEM_ISOTOPIC_ATOM_COUNT>
0

> <PUBCHEM_COMPONENT_COUNT>
1

> <PUBCHEM_CACTVS_TAUTO_COUNT>
16

> <PUBCHEM_CONFORMER_ID>
02F8599900000001

> <PUBCHEM_MMFF94_ENERGY>
52.9881

> <PUBCHEM_FEATURE_SELFOVERLAP>
55.934

> <PUBCHEM_SHAPE_FINGERPRINT>
10074138 170 17977648037999610042
10165383 225 18270980036344809897
10608611 8 18118129078468599879
10670039 82 18188788248250645084
1100329 8 16899620416305799000
11370993 70 18410852161678103252
11725454 13 17846497088652626756
11833330 49 17619622931301218698
12173636 292 18339359781004464782
12363563 72 8574436447505173440
12403259 415 18341059574757662720
12422481 6 18117531004657572616
12549972 3 17534932704890497931
12596602 18 16588587646589142648
12769317 202 18270678658552783754
12788726 201 17539696111432198658
13134695 92 17620183244091817311
13140716 1 18263359196550884579
13540713 4 18043261141674343073
138480 1 17834115238766845966
14341114 328 17168145675892970648
14468879 13 18260835877900973537
14508225 48 17334487697508773166
15042514 8 17904770225330216042
15230672 131 18408889543352342550
15403338 16 16661465398981346505
20101258 96 17109895976767993594
21033648 29 18343013437170095864
21279426 13 18270973354177303806
21304303 282 17697839835043599150
21524375 3 18343024431985627934
22149856 69 18191611713324053105
23536364 44 17695935240717847564
23559900 14 18049158865657744867
3298306 158 18342179938625825470
350125 39 18337119977203053598
3524813 1 18270402809841248137
469060 322 18193841676833070771
495365 180 18269263574176644893
508706 21 18339927133636662822
5104073 3 18189345576344849609
5265222 85 18192730036781627700
5385378 56 18340774719335625056
57124632 79 18339351951447421282
621550 34 18337968822134776091
6442390 28 18339648931156103542
7064713 232 18334017206755550036
7226269 152 17988921211098195584
7399639 24 18409459093916292595
7808743 9 18121224444309115948
81228 2 17621310673086157610
84936 182 18200313199835353384
9709674 26 18118973482108907887
9862522 239 18335689581204960660
9925002 15 17544767080338867151
9981440 41 18408881849884124347

> <PUBCHEM_SHAPE_MULTIPOLES>
444.42
9.17
4.77
1.12
2.38
5.92
-0.22
-9.99
-1.37
0.87
1.02
0.5
-0.53
1.58

> <PUBCHEM_SHAPE_SELFOVERLAP>
970.271

> <PUBCHEM_SHAPE_VOLUME>
242.3

> <PUBCHEM_COORDINATE_TYPE>
2
5
10

$$$$
49830302
  -OEChem-05102415023D

 49 52  0     0  0  0  0  0  0999 V2000
   -2.6062    5.1086   -0.3656 Cl  0  0  0  0  0  0  0  0  0  0  0  0
    5.9398   -1.3759   -0.7742 S   0  0  0  0  0  0  0  0  0  0  0  0
    5.7375   -0.8244   -2.0996 O   0  0  0  0  0  0  0  0  0  0  0  0
    6.0737   -2.8067   -0.5785 O   0  0  0  0  0  0  0  0  0  0  0  0
    4.7362   -0.8094    0.2845 N   0  0  0  0  0  0  0  0  0  0  0  0
    0.7916    1.7770    0.8376 N   0  0  0  0  0  0  0  0  0  0  0  0
   -1.2581    0.9104    0.1800 N   0  0  0  0  0  0  0  0  0  0  0  0
   -0.8688    3.2876    0.2505 N   0  0  0  0  0  0  0  0  0  0  0  0
   -4.9343   -1.2216   -1.4166 N   0  0  0  0  0  0  0  0  0  0  0  0
   -4.6683   -3.2864   -0.2042 N   0  0  0  0  0  0  0  0  0  0  0  0
    4.1586    0.5409    0.0542 C   0  0  0  0  0  0  0  0  0  0  0  0
    1.3435    0.4541    1.0547 C   0  0  0  0  0  0  0  0  0  0  0  0
    3.7683    1.1755    1.3889 C   0  0  0  0  0  0  0  0  0  0  0  0
    2.9787    0.4389   -0.9120 C   0  0  0  0  0  0  0  0  0  0  0  0
    2.5285    0.5356    2.0184 C   0  0  0  0  0  0  0  0  0  0  0  0
    1.7312   -0.1854   -0.2804 C   0  0  0  0  0  0  0  0  0  0  0  0
   -0.5007    2.0013    0.4032 C   0  0  0  0  0  0  0  0  0  0  0  0
    7.3834   -0.6073   -0.0762 C   0  0  0  0  0  0  0  0  0  0  0  0
   -2.5142    1.1661   -0.2409 C   0  0  0  0  0  0  0  0  0  0  0  0
   -3.3366    0.0163   -0.4861 C   0  0  0  0  0  0  0  0  0  0  0  0
   -2.1370    3.4703   -0.1723 C   0  0  0  0  0  0  0  0  0  0  0  0
   -3.0133    2.4376   -0.4365 C   0  0  0  0  0  0  0  0  0  0  0  0
   -3.3201   -1.2648    0.1262 C   0  0  0  0  0  0  0  0  0  0  0  0
   -4.3395    0.0133   -1.4315 C   0  0  0  0  0  0  0  0  0  0  0  0
   -4.3278   -2.0123   -0.4762 C   0  0  0  0  0  0  0  0  0  0  0  0
   -2.5638   -1.8905    1.1306 C   0  0  0  0  0  0  0  0  0  0  0  0
   -2.8744   -3.2105    1.4521 C   0  0  0  0  0  0  0  0  0  0  0  0
   -3.9080   -3.8385    0.7700 C   0  0  0  0  0  0  0  0  0  0  0  0
    4.9325    1.1735   -0.3974 H   0  0  0  0  0  0  0  0  0  0  0  0
    0.5873   -0.1746    1.5424 H   0  0  0  0  0  0  0  0  0  0  0  0
    3.5790    2.2443    1.2301 H   0  0  0  0  0  0  0  0  0  0  0  0
    4.6035    1.1128    2.0974 H   0  0  0  0  0  0  0  0  0  0  0  0
    3.2448   -0.1328   -1.8076 H   0  0  0  0  0  0  0  0  0  0  0  0
    2.7238    1.4492   -1.2571 H   0  0  0  0  0  0  0  0  0  0  0  0
    2.2504    1.0995    2.9174 H   0  0  0  0  0  0  0  0  0  0  0  0
    2.7822   -0.4778    2.3539 H   0  0  0  0  0  0  0  0  0  0  0  0
    1.9280   -1.2517   -0.1087 H   0  0  0  0  0  0  0  0  0  0  0  0
    0.9075   -0.1415   -1.0019 H   0  0  0  0  0  0  0  0  0  0  0  0
    4.7240   -1.1590    1.2504 H   0  0  0  0  0  0  0  0  0  0  0  0
    1.3770    2.5933    0.9697 H   0  0  0  0  0  0  0  0  0  0  0  0
    7.4901   -0.9299    0.9612 H   0  0  0  0  0  0  0  0  0  0  0  0
    7.2817    0.4772   -0.1413 H   0  0  0  0  0  0  0  0  0  0  0  0
    8.2507   -0.9319   -0.6555 H   0  0  0  0  0  0  0  0  0  0  0  0
   -4.0274    2.6378   -0.7616 H   0  0  0  0  0  0  0  0  0  0  0  0
   -4.6907    0.7649   -2.1258 H   0  0  0  0  0  0  0  0  0  0  0  0
   -5.7010   -1.5071   -2.0098 H   0  0  0  0  0  0  0  0  0  0  0  0
   -1.7636   -1.3761    1.6522 H   0  0  0  0  0  0  0  0  0  0  0  0
   -2.3192   -3.7360    2.2217 H   0  0  0  0  0  0  0  0  0  0  0  0
   -4.1638   -4.8676    1.0082 H   0  0  0  0  0  0  0  0  0  0  0  0
  1 21  1  0  0  0  0
  2  3  2  0  0  0  0
  2  4  2  0  0  0  0
  2  5  1  0  0  0  0
  2 18  1  0  0  0  0
  5 11  1  0  0  0  0
  5 39  1  0  0  0  0
  6 12  1  0  0  0  0
  6 17  1  0  0  0  0
  6 40  1  0  0  0  0
  7 17  2  0  0  0  0
  7 19  1  0  0  0  0
  8 17  1  0  0  0  0
  8 21  2  0  0  0  0
  9 24  1  0  0  0  0
  9 25  1  0  0  0  0
  9 46  1  0  0  0  0
 10 25  1  0  0  0  0
 10 28  2  0  0  0  0
 11 13  1  0  0  0  0
 11 14  1  0  0  0  0
 11 29  1  0  0  0  0
 12 15  1  0  0  0  0
 12 16  1  0  0  0  0
 12 30  1  0  0  0  0
 13 15  1  0  0  0  0
 13 31  1  0  0  0  0
 13 32  1  0  0  0  0
 14 16  1  0  0  0  0
 14 33  1  0  0  0  0
 14 34  1  0  0  0  0
 15 35  1  0  0  0  0
 15 36  1  0  0  0  0
 16 37  1  0  0  0  0
 16 38  1  0  0  0  0
 18 41  1  0  0  0  0
 18 42  1  0  0  0  0
 18 43  1  0  0  0  0
 19 20  1  0  0  0  0
 19 22  2  0  0  0  0
 20 23  1  0  0  0  0
 20 24  2  0  0  0  0
 21 22  1  0  0  0  0
 22 44  1  0  0  0  0
 23 25  2  0  0  0  0
 23 26  1  0  0  0  0
 24 45  1  0  0  0  0
 26 27  2  0  0  0  0
 26 47  1  0  0  0  0
 27 28  1  0  0  0  0
 27 48  1  0  0  0  0
 28 49  1  0  0  0  0
M  END
> <PUBCHEM_COMPOUND_CID>
49830302

> <PUBCHEM_CONFORMER_RMSD>
1

> <PUBCHEM_CONFORMER_DIVERSEORDER>
1
77
147
128
42
80
105
118
21
26
74
61
139
88
9
84
141
112
53
98
156
132
71
36
90
44
120
154
28
115
82
20
69
47
144
146
32
27
149
124
12
151
91
30
29
159
129
119
93
157
39
110
55
76
78
137
104
145
40
58
24
60
63
87
25
116
81
49
96
127
22
89
23
158
66
155
126
2
45
109
150
13
75
107
54
41
17
33
125
142
114
59
64
57
143
56
70
8
97
103
52
86
121
152
148
131
99
67
65
7
51
14
37
95
10
102
85
122
50
68
92
19
117
113
46
94
101
140
34
79
43
83
38
138
153
100
135
133
136
31
6
134
62
108
106
111
3
35
16
15
5
48
72
73
11
130
18
123
4

> <PUBCHEM_MMFF94_PARTIAL_CHARGES>
31
1 -0.18
10 -0.57
11 0.36
12 0.37
17 0.72
18 0.11
19 0.36
2 1.33
20 -0.05
21 0.49
22 -0.15
24 -0.3
25 0.11
26 -0.15
27 -0.15
28 0.16
3 -0.65
39 0.42
4 -0.65
40 0.4
44 0.15
45 0.15
46 0.27
47 0.15
48 0.15
49 0.15
5 -0.91
6 -0.87
7 -0.62
8 -0.62
9 0.03

> <PUBCHEM_EFFECTIVE_ROTOR_COUNT>
6.2

> <PUBCHEM_PHARMACOPHORE_FEATURES>
13
1 10 acceptor
1 3 acceptor
1 4 acceptor
1 5 donor
1 6 donor
1 8 acceptor
1 9 cation
1 9 donor
4 6 7 8 17 cation
5 9 20 23 24 25 rings
6 10 23 25 26 27 28 rings
6 11 12 13 14 15 16 rings
6 7 8 17 19 21 22 rings

> <PUBCHEM_HEAVY_ATOM_COUNT>
28

> <PUBCHEM_ATOM_DEF_STEREO_COUNT>
0

> <PUBCHEM_ATOM_UDEF_STEREO_COUNT>
0

> <PUBCHEM_BOND_DEF_STEREO_COUNT>
0

> <PUBCHEM_BOND_UDEF_STEREO_COUNT>
0

> <PUBCHEM_ISOTOPIC_ATOM_COUNT>
0

> <PUBCHEM_COMPONENT_COUNT>
1

> <PUBCHEM_CACTVS_TAUTO_COUNT>
16

> <PUBCHEM_CONFORMER_ID>
02F8599E00000001

> <PUBCHEM_MMFF94_ENERGY>
54.878

> <PUBCHEM_FEATURE_SELFOVERLAP>
66.102

> <PUBCHEM_SHAPE_FINGERPRINT>
10254770 206 16893421370144823250
107951 10 18124313796899369197
11056379 131 18337104575477080585
11488393 25 17903930194103999488
11809386 21 18338231562199988138
12363563 72 18266176321941216929
12553582 1 18334851762520112185
12633257 1 16056599906293256654
12788726 201 18262503820119020209
13782708 43 17989207062372046470
14150023 24 17835809595224310777
14251757 5 18333728014244269293
14461889 52 18271514348500858482
14866123 147 18412549782752733297
14931854 50 18188471533310045383
14950920 106 14404890444729748790
15230672 131 17904766579430378826
15250474 111 18115579336811015122
15361156 5 18272646865855525869
15927050 60 17980756044429030501
15950262 2 14781496078836846565
17909252 39 18194406821251250904
19301676 85 17117212693975795774
20505436 4 17534348838082802680
21033650 10 17603579712337200625
21065201 7 18341600474481141472
21133410 32 15648479946137716434
21307412 95 18339352055149629271
23379529 103 18338518676057600619
23559900 14 18410284831016224128
25025965 108 17844505761553514086
2838139 119 14490465405229640958
3004659 81 17968086572935192415
3117164 225 10159435158857975740
3610482 184 17824571624346589372
395649 100 18334860498847796550
4073 2 18411981322277143280
4280585 95 18333444357276609292
44062 13 18270119002950366660
4461854 278 14874149178503208755
484985 159 17275106077043249017
508706 21 18341336591331766030
57307002 85 18342751701731150358
59755656 520 17984426239496048937
613672 6 18193817457243151555
7970288 3 18268429225208946527

> <PUBCHEM_SHAPE_MULTIPOLES>
540.32
14.67
5.1
1.41
25.29
2.89
0.08
-11.94
-5.09
-8.65
0.5
0.72
-0.4
2.05

> <PUBCHEM_SHAPE_SELFOVERLAP>
1148.278

> <PUBCHEM_SHAPE_VOLUME>
305.2

> <PUBCHEM_COORDINATE_TYPE>
2
5
10

$$$$
49830312
  -OEChem-05102415023D

 56 59  0     0  0  0  0  0  0999 V2000
    4.0514   -4.6932    0.7404 Cl  0  0  0  0  0  0  0  0  0  0  0  0
   -5.8434   -0.8105    1.3488 O   0  0  0  0  0  0  0  0  0  0  0  0
   -4.3596   -0.5802   -0.4231 N   0  0  0  0  0  0  0  0  0  0  0  0
    0.0532   -2.2836   -0.7760 N   0  0  0  0  0  0  0  0  0  0  0  0
    1.8378   -0.9433   -0.1412 N   0  0  0  0  0  0  0  0  0  0  0  0
    1.9825   -3.3470   -0.0479 N   0  0  0  0  0  0  0  0  0  0  0  0
   -6.1231    2.0622    0.8018 N   0  0  0  0  0  0  0  0  0  0  0  0
    4.8917    2.0526    1.3753 N   0  0  0  0  0  0  0  0  0  0  0  0
    4.2158    3.9233    0.0161 N   0  0  0  0  0  0  0  0  0  0  0  0
   -3.5350   -1.7311   -0.1328 C   0  0  0  0  0  0  0  0  0  0  0  0
   -0.7687   -1.1328   -1.0960 C   0  0  0  0  0  0  0  0  0  0  0  0
   -2.4117   -1.3679    0.8408 C   0  0  0  0  0  0  0  0  0  0  0  0
   -2.9890   -2.3620   -1.4163 C   0  0  0  0  0  0  0  0  0  0  0  0
   -1.3210   -0.5140    0.1898 C   0  0  0  0  0  0  0  0  0  0  0  0
   -1.8817   -1.5294   -2.0690 C   0  0  0  0  0  0  0  0  0  0  0  0
   -5.4533   -0.2134    0.3479 C   0  0  0  0  0  0  0  0  0  0  0  0
    1.3472   -2.1871   -0.3021 C   0  0  0  0  0  0  0  0  0  0  0  0
   -6.1499    1.0123   -0.2066 C   0  0  0  0  0  0  0  0  0  0  0  0
    3.1025   -0.8860    0.3251 C   0  0  0  0  0  0  0  0  0  0  0  0
    3.6439    0.4307    0.5015 C   0  0  0  0  0  0  0  0  0  0  0  0
    3.2428   -3.2161    0.4157 C   0  0  0  0  0  0  0  0  0  0  0  0
    3.8607   -1.9998    0.6237 C   0  0  0  0  0  0  0  0  0  0  0  0
   -4.8033    2.6951    0.8554 C   0  0  0  0  0  0  0  0  0  0  0  0
   -7.1548    3.0661    0.5315 C   0  0  0  0  0  0  0  0  0  0  0  0
    3.3641    1.6339   -0.1991 C   0  0  0  0  0  0  0  0  0  0  0  0
    4.5875    0.7189    1.4638 C   0  0  0  0  0  0  0  0  0  0  0  0
    4.1581    2.6254    0.3698 C   0  0  0  0  0  0  0  0  0  0  0  0
    2.5240    2.0083   -1.2604 C   0  0  0  0  0  0  0  0  0  0  0  0
    2.5444    3.3411   -1.6673 C   0  0  0  0  0  0  0  0  0  0  0  0
    3.3869    4.2273   -1.0097 C   0  0  0  0  0  0  0  0  0  0  0  0
   -4.1804   -2.4703    0.3583 H   0  0  0  0  0  0  0  0  0  0  0  0
   -0.1532   -0.3859   -1.6140 H   0  0  0  0  0  0  0  0  0  0  0  0
   -1.9592   -2.2914    1.2236 H   0  0  0  0  0  0  0  0  0  0  0  0
   -2.8148   -0.8345    1.7103 H   0  0  0  0  0  0  0  0  0  0  0  0
   -3.7997   -2.5128   -2.1396 H   0  0  0  0  0  0  0  0  0  0  0  0
   -2.5936   -3.3578   -1.1805 H   0  0  0  0  0  0  0  0  0  0  0  0
   -0.5278   -0.3319    0.9235 H   0  0  0  0  0  0  0  0  0  0  0  0
   -1.7438    0.4703   -0.0503 H   0  0  0  0  0  0  0  0  0  0  0  0
   -2.3250   -0.6174   -2.4882 H   0  0  0  0  0  0  0  0  0  0  0  0
   -1.4648   -2.0878   -2.9164 H   0  0  0  0  0  0  0  0  0  0  0  0
   -4.0816    0.0167   -1.1961 H   0  0  0  0  0  0  0  0  0  0  0  0
   -0.3355   -3.2155   -0.8606 H   0  0  0  0  0  0  0  0  0  0  0  0
   -5.7275    1.3406   -1.1636 H   0  0  0  0  0  0  0  0  0  0  0  0
   -7.1797    0.6903   -0.4109 H   0  0  0  0  0  0  0  0  0  0  0  0
    4.8810   -1.9486    0.9849 H   0  0  0  0  0  0  0  0  0  0  0  0
   -4.5264    3.1588   -0.0985 H   0  0  0  0  0  0  0  0  0  0  0  0
   -4.7835    3.4703    1.6299 H   0  0  0  0  0  0  0  0  0  0  0  0
   -4.0262    1.9724    1.1267 H   0  0  0  0  0  0  0  0  0  0  0  0
   -7.1520    3.8398    1.3073 H   0  0  0  0  0  0  0  0  0  0  0  0
   -7.0137    3.5508   -0.4414 H   0  0  0  0  0  0  0  0  0  0  0  0
   -8.1508    2.6096    0.5498 H   0  0  0  0  0  0  0  0  0  0  0  0
    5.0721    0.1115    2.2165 H   0  0  0  0  0  0  0  0  0  0  0  0
    5.5539    2.5402    1.9626 H   0  0  0  0  0  0  0  0  0  0  0  0
    1.8778    1.2952   -1.7611 H   0  0  0  0  0  0  0  0  0  0  0  0
    1.9141    3.6783   -2.4832 H   0  0  0  0  0  0  0  0  0  0  0  0
    3.4155    5.2703   -1.3141 H   0  0  0  0  0  0  0  0  0  0  0  0
  1 21  1  0  0  0  0
  2 16  2  0  0  0  0
  3 10  1  0  0  0  0
  3 16  1  0  0  0  0
  3 41  1  0  0  0  0
  4 11  1  0  0  0  0
  4 17  1  0  0  0  0
  4 42  1  0  0  0  0
  5 17  2  0  0  0  0
  5 19  1  0  0  0  0
  6 17  1  0  0  0  0
  6 21  2  0  0  0  0
  7 18  1  0  0  0  0
  7 23  1  0  0  0  0
  7 24  1  0  0  0  0
  8 26  1  0  0  0  0
  8 27  1  0  0  0  0
  8 53  1  0  0  0  0
  9 27  1  0  0  0  0
  9 30  2  0  0  0  0
 10 12  1  0  0  0  0
 10 13  1  0  0  0  0
 10 31  1  0  0  0  0
 11 14  1  0  0  0  0
 11 15  1  0  0  0  0
 11 32  1  0  0  0  0
 12 14  1  0  0  0  0
 12 33  1  0  0  0  0
 12 34  1  0  0  0  0
 13 15  1  0  0  0  0
 13 35  1  0  0  0  0
 13 36  1  0  0  0  0
 14 37  1  0  0  0  0
 14 38  1  0  0  0  0
 15 39  1  0  0  0  0
 15 40  1  0  0  0  0
 16 18  1  0  0  0  0
 18 43  1  0  0  0  0
 18 44  1  0  0  0  0
 19 20  1  0  0  0  0
 19 22  2  0  0  0  0
 20 25  1  0  0  0  0
 20 26  2  0  0  0  0
 21 22  1  0  0  0  0
 22 45  1  0  0  0  0
 23 46  1  0  0  0  0
 23 47  1  0  0  0  0
 23 48  1  0  0  0  0
 24 49  1  0  0  0  0
 24 50  1  0  0  0  0
 24 51  1  0  0  0  0
 25 27  2  0  0  0  0
 25 28  1  0  0  0  0
 26 52  1  0  0  0  0
 28 29  2  0  0  0  0
 28 54  1  0  0  0  0
 29 30  1  0  0  0  0
 29 55  1  0  0  0  0
 30 56  1  0  0  0  0
M  END
> <PUBCHEM_COMPOUND_CID>
49830312

> <PUBCHEM_CONFORMER_RMSD>
1

> <PUBCHEM_CONFORMER_DIVERSEORDER>
1
37
147
49
132
57
125
138
143
42
73
65
116
22
10
69
98
152
142
99
52
32
60
102
106
77
85
16
135
114
51
105
54
117
112
141
74
97
118
61
39
35
79
144
104
44
55
91
133
87
145
75
11
41
67
24
56
130
121
63
58
90
110
20
122
107
113
40
34
134
95
26
17
21
80
136
28
53
25
76
83
72
62
128
36
108
140
68
123
59
46
120
127
27
93
137
30
66
119
103
96
64
29
19
131
48
82
15
150
23
109
89
5
139
12
111
149
47
78
146
13
6
100
50
9
81
3
124
18
43
38
70
129
101
126
86
94
92
151
71
2
115
33
7
45
84
88
148
8
4
14
31

> <PUBCHEM_MMFF94_PARTIAL_CHARGES>
33
1 -0.18
10 0.3
11 0.37
16 0.57
17 0.72
18 0.33
19 0.36
2 -0.57
20 -0.05
21 0.49
22 -0.15
23 0.27
24 0.27
26 -0.3
27 0.11
28 -0.15
29 -0.15
3 -0.73
30 0.16
4 -0.87
41 0.37
42 0.4
45 0.15
5 -0.62
52 0.15
53 0.27
54 0.15
55 0.15
56 0.15
6 -0.62
7 -0.81
8 0.03
9 -0.57

> <PUBCHEM_EFFECTIVE_ROTOR_COUNT>
8.2

> <PUBCHEM_PHARMACOPHORE_FEATURES>
13
1 2 acceptor
1 3 donor
1 4 donor
1 6 acceptor
1 7 cation
1 8 cation
1 8 donor
1 9 acceptor
4 4 5 6 17 cation
5 8 20 25 26 27 rings
6 10 11 12 13 14 15 rings
6 5 6 17 19 21 22 rings
6 9 25 27 28 29 30 rings

> <PUBCHEM_HEAVY_ATOM_COUNT>
30

> <PUBCHEM_ATOM_DEF_STEREO_COUNT>
0

> <PUBCHEM_ATOM_UDEF_STEREO_COUNT>
0

> <PUBCHEM_BOND_DEF_STEREO_COUNT>
0

> <PUBCHEM_BOND_UDEF_STEREO_COUNT>
0

> <PUBCHEM_ISOTOPIC_ATOM_COUNT>
0

> <PUBCHEM_COMPONENT_COUNT>
1

> <PUBCHEM_CACTVS_TAUTO_COUNT>
32

> <PUBCHEM_CONFORMER_ID>
02F859A800000001

> <PUBCHEM_MMFF94_ENERGY>
64.6406

> <PUBCHEM_FEATURE_SELFOVERLAP>
66.085

> <PUBCHEM_SHAPE_FINGERPRINT>
100830 2 18341342192375775857
10763959 59 18128545876972926135
10838868 217 17975124350045957461
10917259 69 18048322434433060420
10937287 8 17976823404589292558
11756154 67 17906175049314022442
12107183 9 18196649593149057891
12422481 6 18187083928076689605
12633257 1 17023740251011629034
14114211 80 17826807124738469452
14251764 38 18269001882310345481
14251764 75 17901673992091319140
14784336 7 17116342422126538031
14790565 3 18123190366139856812
15439362 3 18267871765172574348
15840311 113 18335703785627322053
17810953 82 18411139142818698748
19302320 297 18053113818053156665
20567600 9 18337121141365836748
20715895 44 18342456985464802057
21302155 148 18343587373786840909
21315764 268 18191024509220773277
21792938 324 17977359674358878584
22122407 14 18339090315309747043
23559900 14 18335985276834914195
245318 6 18262248836089401093
24771293 8 18199164314477352922
2838139 119 18196365919723617373
3103668 31 17545326272533722478
3493558 16 18127135169521850929
373842 8 18410295783673731745
397830 11 18114473353073563043
4144715 1 18260840302034013859
4409770 3 17184463219345615078
474 4 18192701461789726534
5104073 3 18333732395290597667
550186 72 17907298011795537495
57724786 102 18411696569665645607
6058803 2 18199730579006596135

> <PUBCHEM_SHAPE_MULTIPOLES>
578.52
15.58
5.97
1.4
26.48
1.44
0.38
10.37
-5.86
-7.59
0.5
0.02
0.21
-2.67

> <PUBCHEM_SHAPE_SELFOVERLAP>
1234.533

> <PUBCHEM_SHAPE_VOLUME>
322.6

> <PUBCHEM_COORDINATE_TYPE>
2
5
10

$$$$
49830333
  -OEChem-05102415023D

 43 46  0     0  0  0  0  0  0999 V2000
    1.9686   -5.0594    0.2147 Cl  0  0  0  0  0  0  0  0  0  0  0  0
   -1.9777   -1.9173   -0.2105 N   0  0  0  0  0  0  0  0  0  0  0  0
   -5.5050    2.4904    0.3093 N   0  0  0  0  0  0  0  0  0  0  0  0
    0.1852   -1.0025   -0.1025 N   0  0  0  0  0  0  0  0  0  0  0  0
    2.0833   -2.4734    0.1007 N   0  0  0  0  0  0  0  0  0  0  0  0
    4.2930    1.0026    0.0957 N   0  0  0  0  0  0  0  0  0  0  0  0
    3.4852    3.2665   -0.0634 N   0  0  0  0  0  0  0  0  0  0  0  0
   -2.6103   -0.6201   -0.3162 C   0  0  0  0  0  0  0  0  0  0  0  0
   -4.8293    1.1969    0.4057 C   0  0  0  0  0  0  0  0  0  0  0  0
   -2.6849    0.0319    1.0663 C   0  0  0  0  0  0  0  0  0  0  0  0
   -4.0010   -0.7817   -0.9328 C   0  0  0  0  0  0  0  0  0  0  0  0
   -3.4333    1.3634    1.0179 C   0  0  0  0  0  0  0  0  0  0  0  0
   -4.7509    0.5491   -0.9812 C   0  0  0  0  0  0  0  0  0  0  0  0
   -0.6114   -2.0915   -0.1069 C   0  0  0  0  0  0  0  0  0  0  0  0
   -0.1413   -3.3856   -0.0127 C   0  0  0  0  0  0  0  0  0  0  0  0
    1.5024   -1.2624    0.0027 C   0  0  0  0  0  0  0  0  0  0  0  0
    2.3793   -0.1294    0.0106 C   0  0  0  0  0  0  0  0  0  0  0  0
    2.0806    1.2563   -0.0727 C   0  0  0  0  0  0  0  0  0  0  0  0
    1.2286   -3.5173    0.0898 C   0  0  0  0  0  0  0  0  0  0  0  0
    3.2949    1.9343   -0.0170 C   0  0  0  0  0  0  0  0  0  0  0  0
    3.7480   -0.2551    0.1130 C   0  0  0  0  0  0  0  0  0  0  0  0
    0.9139    2.0291   -0.1905 C   0  0  0  0  0  0  0  0  0  0  0  0
    1.0535    3.4148   -0.2431 C   0  0  0  0  0  0  0  0  0  0  0  0
    2.3286    3.9603   -0.1768 C   0  0  0  0  0  0  0  0  0  0  0  0
   -2.0294    0.0242   -0.9899 H   0  0  0  0  0  0  0  0  0  0  0  0
   -5.4254    0.5506    1.0625 H   0  0  0  0  0  0  0  0  0  0  0  0
   -1.6815    0.2029    1.4727 H   0  0  0  0  0  0  0  0  0  0  0  0
   -3.1908   -0.6414    1.7712 H   0  0  0  0  0  0  0  0  0  0  0  0
   -4.5896   -1.5060   -0.3542 H   0  0  0  0  0  0  0  0  0  0  0  0
   -3.9169   -1.1917   -1.9468 H   0  0  0  0  0  0  0  0  0  0  0  0
   -2.8469    2.0838    0.4323 H   0  0  0  0  0  0  0  0  0  0  0  0
   -3.5123    1.7697    2.0338 H   0  0  0  0  0  0  0  0  0  0  0  0
   -5.7595    0.3787   -1.3777 H   0  0  0  0  0  0  0  0  0  0  0  0
   -4.2425    1.2216   -1.6849 H   0  0  0  0  0  0  0  0  0  0  0  0
   -2.5615   -2.6923    0.0886 H   0  0  0  0  0  0  0  0  0  0  0  0
   -6.4509    2.3581   -0.0463 H   0  0  0  0  0  0  0  0  0  0  0  0
   -5.6005    2.8973    1.2388 H   0  0  0  0  0  0  0  0  0  0  0  0
   -0.8007   -4.2458   -0.0191 H   0  0  0  0  0  0  0  0  0  0  0  0
    4.3963   -1.1172    0.1980 H   0  0  0  0  0  0  0  0  0  0  0  0
    5.2799    1.2116    0.1565 H   0  0  0  0  0  0  0  0  0  0  0  0
   -0.0743    1.5864   -0.2418 H   0  0  0  0  0  0  0  0  0  0  0  0
    0.1817    4.0537   -0.3340 H   0  0  0  0  0  0  0  0  0  0  0  0
    2.4558    5.0390   -0.2163 H   0  0  0  0  0  0  0  0  0  0  0  0
  1 19  1  0  0  0  0
  2  8  1  0  0  0  0
  2 14  1  0  0  0  0
  2 35  1  0  0  0  0
  3  9  1  0  0  0  0
  3 36  1  0  0  0  0
  3 37  1  0  0  0  0
  4 14  1  0  0  0  0
  4 16  2  0  0  0  0
  5 16  1  0  0  0  0
  5 19  2  0  0  0  0
  6 20  1  0  0  0  0
  6 21  1  0  0  0  0
  6 40  1  0  0  0  0
  7 20  1  0  0  0  0
  7 24  2  0  0  0  0
  8 10  1  0  0  0  0
  8 11  1  0  0  0  0
  8 25  1  0  0  0  0
  9 12  1  0  0  0  0
  9 13  1  0  0  0  0
  9 26  1  0  0  0  0
 10 12  1  0  0  0  0
 10 27  1  0  0  0  0
 10 28  1  0  0  0  0
 11 13  1  0  0  0  0
 11 29  1  0  0  0  0
 11 30  1  0  0  0  0
 12 31  1  0  0  0  0
 12 32  1  0  0  0  0
 13 33  1  0  0  0  0
 13 34  1  0  0  0  0
 14 15  2  0  0  0  0
 15 19  1  0  0  0  0
 15 38  1  0  0  0  0
 16 17  1  0  0  0  0
 17 18  1  0  0  0  0
 17 21  2  0  0  0  0
 18 20  2  0  0  0  0
 18 22  1  0  0  0  0
 21 39  1  0  0  0  0
 22 23  2  0  0  0  0
 22 41  1  0  0  0  0
 23 24  1  0  0  0  0
 23 42  1  0  0  0  0
 24 43  1  0  0  0  0
M  END
> <PUBCHEM_COMPOUND_CID>
49830333

> <PUBCHEM_CONFORMER_RMSD>
0.8

> <PUBCHEM_CONFORMER_DIVERSEORDER>
1
57
58
32
18
52
35
26
24
36
53
9
30
25
56
22
11
55
8
50
44
2
41
39
54
13
19
49
15
23
47
31
59
28
60
48
3
46
17
4
29
38
45
21
51
7
33
10
42
27
16
34
40
14
37
6
43
12
20
5

> <PUBCHEM_MMFF94_PARTIAL_CHARGES>
28
1 -0.18
14 0.41
15 -0.15
16 0.67
17 -0.05
19 0.49
2 -0.87
20 0.11
21 -0.3
22 -0.15
23 -0.15
24 0.16
3 -0.99
35 0.4
36 0.36
37 0.36
38 0.15
39 0.15
4 -0.62
40 0.27
41 0.15
42 0.15
43 0.15
5 -0.62
6 0.03
7 -0.57
8 0.37
9 0.27

> <PUBCHEM_EFFECTIVE_ROTOR_COUNT>
4.2

> <PUBCHEM_PHARMACOPHORE_FEATURES>
13
1 2 cation
1 2 donor
1 3 cation
1 3 donor
1 5 acceptor
1 6 cation
1 6 donor
1 7 acceptor
3 4 5 16 cation
5 6 17 18 20 21 rings
6 4 5 14 15 16 19 rings
6 7 18 20 22 23 24 rings
6 8 9 10 11 12 13 rings

> <PUBCHEM_HEAVY_ATOM_COUNT>
24

> <PUBCHEM_ATOM_DEF_STEREO_COUNT>
0

> <PUBCHEM_ATOM_UDEF_STEREO_COUNT>
0

> <PUBCHEM_BOND_DEF_STEREO_COUNT>
0

> <PUBCHEM_BOND_UDEF_STEREO_COUNT>
0

> <PUBCHEM_ISOTOPIC_ATOM_COUNT>
0

> <PUBCHEM_COMPONENT_COUNT>
1

> <PUBCHEM_CACTVS_TAUTO_COUNT>
9

> <PUBCHEM_CONFORMER_ID>
02F859BD00000001

> <PUBCHEM_MMFF94_ENERGY>
45.2486

> <PUBCHEM_FEATURE_SELFOVERLAP>
66.085

> <PUBCHEM_SHAPE_FINGERPRINT>
10411042 1 17761775061698747715
10670039 82 16461651473226389188
10937287 8 18266176317081890140
1100329 8 18338514244352782752
11370993 70 18267017443699009585
12107183 9 18191285274028758976
12173636 292 17978507864581997878
12403260 363 18194951057673278670
12633257 1 18334283280047517416
12978246 48 18193556907115193457
13009979 54 17629764461768389539
13134695 92 18048038476014848455
13140716 1 18410290354639267304
13583140 156 17604422019774681211
13590594 115 17762059835041270611
138480 1 18194402178027119407
13878862 14 17972861593849288877
14466204 15 18337378392700721352
14790565 3 18336553814920602380
15081414 286 18267587901096645119
15420108 30 18199446853809581794
16087824 20 17041763089449248685
16760501 71 18339089199056379153
19301679 30 16967167814259137099
19591789 44 18267029345664868390
19930381 70 18409163299486715021
20510252 161 17763466518482548874
20621476 13 18336826381865498333
20739085 24 18261112972027236476
21033648 144 18041829731621233709
21041028 32 17760364392363996198
21298829 104 18270678658864955849
21860390 5 18271808956274400007
22749437 52 18267865180012094489
23558518 356 17611742710453945546
24771293 8 18127953258066490858
3117164 225 17979615047791849136
335352 9 18410008884231960684
350125 39 18120944072626985531
3886686 26 17763708343106589288
474 4 18411134740830394835
5048184 11 18194405712959673629
5081480 168 17270361671231436087
58902169 19 17696725807317932733
6328613 192 18191872430360312036
6371009 1 18194941149378463957
9981440 41 18265889344826947467

> <PUBCHEM_SHAPE_MULTIPOLES>
465.89
9.03
5.94
0.8
11.13
3.21
0.03
-6.39
-0.02
-6.01
0.06
0.7
-0.06
-0.82

> <PUBCHEM_SHAPE_SELFOVERLAP>
1011.988

> <PUBCHEM_SHAPE_VOLUME>
253.5

> <PUBCHEM_COORDINATE_TYPE>
2
5
10

$$$$
49830301
  -OEChem-05102415023D

 49 52  0     1  0  0  0  0  0999 V2000
    3.7199   -4.6062   -0.5427 Cl  0  0  0  0  0  0  0  0  0  0  0  0
   -2.4868    2.0957   -1.0372 S   0  0  0  0  0  0  0  0  0  0  0  0
   -1.8408    1.5221   -2.2016 O   0  0  0  0  0  0  0  0  0  0  0  0
   -1.8004    3.0728   -0.2141 O   0  0  0  0  0  0  0  0  0  0  0  0
   -3.0619    0.8606   -0.0202 N   0  0  0  0  0  0  0  0  0  0  0  0
   -0.8049   -2.9317    0.3654 N   0  0  0  0  0  0  0  0  0  0  0  0
    0.8199   -1.2983    0.0795 N   0  0  0  0  0  0  0  0  0  0  0  0
    1.3619   -3.6417   -0.0697 N   0  0  0  0  0  0  0  0  0  0  0  0
    3.5581    2.2129   -0.8049 N   0  0  0  0  0  0  0  0  0  0  0  0
    2.3904    3.8742    0.4913 N   0  0  0  0  0  0  0  0  0  0  0  0
   -3.4949   -0.4243   -0.6296 C   0  0  1  0  0  0  0  0  0  0  0  0
   -1.8405   -1.9443    0.5871 C   0  0  1  0  0  0  0  0  0  0  0  0
   -2.2954   -1.3659   -0.7580 C   0  0  0  0  0  0  0  0  0  0  0  0
   -4.6312   -1.0343    0.1926 C   0  0  0  0  0  0  0  0  0  0  0  0
   -3.0037   -2.5911    1.3397 C   0  0  0  0  0  0  0  0  0  0  0  0
   -4.1615   -1.6154    1.5257 C   0  0  0  0  0  0  0  0  0  0  0  0
    0.5161   -2.6098    0.1135 C   0  0  0  0  0  0  0  0  0  0  0  0
   -4.0178    2.8289   -1.5666 C   0  0  0  0  0  0  0  0  0  0  0  0
    2.1171   -1.0205   -0.1663 C   0  0  0  0  0  0  0  0  0  0  0  0
    2.4604    0.3718   -0.2083 C   0  0  0  0  0  0  0  0  0  0  0  0
    2.6425   -3.2921   -0.3108 C   0  0  0  0  0  0  0  0  0  0  0  0
    3.0822   -1.9854   -0.3713 C   0  0  0  0  0  0  0  0  0  0  0  0
    1.8878    1.4739    0.4802 C   0  0  0  0  0  0  0  0  0  0  0  0
    3.4853    0.8569   -0.9916 C   0  0  0  0  0  0  0  0  0  0  0  0
    2.5946    2.6064    0.0862 C   0  0  0  0  0  0  0  0  0  0  0  0
    0.8427    1.6525    1.4011 C   0  0  0  0  0  0  0  0  0  0  0  0
    0.5880    2.9456    1.8538 C   0  0  0  0  0  0  0  0  0  0  0  0
    1.3730    3.9868    1.3769 C   0  0  0  0  0  0  0  0  0  0  0  0
   -3.8893   -0.2147   -1.6313 H   0  0  0  0  0  0  0  0  0  0  0  0
   -1.4551   -1.1355    1.2219 H   0  0  0  0  0  0  0  0  0  0  0  0
   -1.4610   -0.8613   -1.2564 H   0  0  0  0  0  0  0  0  0  0  0  0
   -2.5807   -2.1948   -1.4210 H   0  0  0  0  0  0  0  0  0  0  0  0
   -5.0940   -1.8398   -0.3922 H   0  0  0  0  0  0  0  0  0  0  0  0
   -5.4144   -0.2889    0.3762 H   0  0  0  0  0  0  0  0  0  0  0  0
   -3.3612   -3.4754    0.7953 H   0  0  0  0  0  0  0  0  0  0  0  0
   -2.6648   -2.9481    2.3200 H   0  0  0  0  0  0  0  0  0  0  0  0
   -3.8523   -0.8052    2.1968 H   0  0  0  0  0  0  0  0  0  0  0  0
   -4.9975   -2.1277    2.0154 H   0  0  0  0  0  0  0  0  0  0  0  0
   -3.4906    1.1162    0.8776 H   0  0  0  0  0  0  0  0  0  0  0  0
   -1.0504   -3.9149    0.3443 H   0  0  0  0  0  0  0  0  0  0  0  0
   -4.5689    3.1711   -0.6886 H   0  0  0  0  0  0  0  0  0  0  0  0
   -4.5943    2.0931   -2.1295 H   0  0  0  0  0  0  0  0  0  0  0  0
   -3.7790    3.6799   -2.2082 H   0  0  0  0  0  0  0  0  0  0  0  0
    4.1254   -1.7572   -0.5549 H   0  0  0  0  0  0  0  0  0  0  0  0
    4.1721    0.3762   -1.6754 H   0  0  0  0  0  0  0  0  0  0  0  0
    4.2190    2.8294   -1.2570 H   0  0  0  0  0  0  0  0  0  0  0  0
    0.2450    0.8215    1.7606 H   0  0  0  0  0  0  0  0  0  0  0  0
   -0.2086    3.1338    2.5657 H   0  0  0  0  0  0  0  0  0  0  0  0
    1.1880    5.0016    1.7193 H   0  0  0  0  0  0  0  0  0  0  0  0
  1 21  1  0  0  0  0
  2  3  2  0  0  0  0
  2  4  2  0  0  0  0
  2  5  1  0  0  0  0
  2 18  1  0  0  0  0
  5 11  1  0  0  0  0
  5 39  1  0  0  0  0
  6 12  1  0  0  0  0
  6 17  1  0  0  0  0
  6 40  1  0  0  0  0
  7 17  2  0  0  0  0
  7 19  1  0  0  0  0
  8 17  1  0  0  0  0
  8 21  2  0  0  0  0
  9 24  1  0  0  0  0
  9 25  1  0  0  0  0
  9 46  1  0  0  0  0
 10 25  1  0  0  0  0
 10 28  2  0  0  0  0
 11 13  1  0  0  0  0
 11 14  1  0  0  0  0
 11 29  1  0  0  0  0
 12 13  1  0  0  0  0
 12 15  1  0  0  0  0
 12 30  1  0  0  0  0
 13 31  1  0  0  0  0
 13 32  1  0  0  0  0
 14 16  1  0  0  0  0
 14 33  1  0  0  0  0
 14 34  1  0  0  0  0
 15 16  1  0  0  0  0
 15 35  1  0  0  0  0
 15 36  1  0  0  0  0
 16 37  1  0  0  0  0
 16 38  1  0  0  0  0
 18 41  1  0  0  0  0
 18 42  1  0  0  0  0
 18 43  1  0  0  0  0
 19 20  1  0  0  0  0
 19 22  2  0  0  0  0
 20 23  1  0  0  0  0
 20 24  2  0  0  0  0
 21 22  1  0  0  0  0
 22 44  1  0  0  0  0
 23 25  2  0  0  0  0
 23 26  1  0  0  0  0
 24 45  1  0  0  0  0
 26 27  2  0  0  0  0
 26 47  1  0  0  0  0
 27 28  1  0  0  0  0
 27 48  1  0  0  0  0
 28 49  1  0  0  0  0
M  END
> <PUBCHEM_COMPOUND_CID>
49830301

> <PUBCHEM_CONFORMER_RMSD>
1.2

> <PUBCHEM_CONFORMER_DIVERSEORDER>
1
14
58
100
127
27
11
132
102
117
114
9
89
26
21
81
94
141
128
39
6
78
40
133
86
97
68
50
25
32
28
15
99
46
24
139
125
74
115
93
77
33
84
120
83
134
5
129
92
8
72
116
22
2
110
76
70
34
44
137
87
71
73
4
121
17
79
122
7
103
82
55
107
61
91
119
59
38
66
67
138
88
30
53
108
145
62
123
142
80
144
65
3
35
45
101
41
23
64
130
52
135
60
56
131
49
111
19
96
42
136
143
105
109
126
18
113
98
75
69
118
95
140
36
85
54
47
12
37
16
51
48
43
10
124
90
106
104
57
20
112
63
13
29
31

> <PUBCHEM_MMFF94_PARTIAL_CHARGES>
31
1 -0.18
10 -0.57
11 0.36
12 0.37
17 0.72
18 0.11
19 0.36
2 1.33
20 -0.05
21 0.49
22 -0.15
24 -0.3
25 0.11
26 -0.15
27 -0.15
28 0.16
3 -0.65
39 0.42
4 -0.65
40 0.4
44 0.15
45 0.15
46 0.27
47 0.15
48 0.15
49 0.15
5 -0.91
6 -0.87
7 -0.62
8 -0.62
9 0.03

> <PUBCHEM_EFFECTIVE_ROTOR_COUNT>
6.2

> <PUBCHEM_PHARMACOPHORE_FEATURES>
13
1 10 acceptor
1 3 acceptor
1 4 acceptor
1 5 donor
1 6 donor
1 8 acceptor
1 9 cation
1 9 donor
4 6 7 8 17 cation
5 9 20 23 24 25 rings
6 10 23 25 26 27 28 rings
6 11 12 13 14 15 16 rings
6 7 8 17 19 21 22 rings

> <PUBCHEM_HEAVY_ATOM_COUNT>
28

> <PUBCHEM_ATOM_DEF_STEREO_COUNT>
0

> <PUBCHEM_ATOM_UDEF_STEREO_COUNT>
2

> <PUBCHEM_BOND_DEF_STEREO_COUNT>
0

> <PUBCHEM_BOND_UDEF_STEREO_COUNT>
0

> <PUBCHEM_ISOTOPIC_ATOM_COUNT>
0

> <PUBCHEM_COMPONENT_COUNT>
1

> <PUBCHEM_CACTVS_TAUTO_COUNT>
16

> <PUBCHEM_CONFORMER_ID>
02F8599D00000001

> <PUBCHEM_MMFF94_ENERGY>
53.8755

> <PUBCHEM_FEATURE_SELFOVERLAP>
66.102

> <PUBCHEM_SHAPE_FINGERPRINT>
10165383 225 18050021170172401900
10190206 1 18052006661721178398
10498660 4 17975401722948221231
1100329 8 17978799999472013881
12100795 323 17403454568703228561
12156800 1 8484691417980435989
12293681 4 17763744291171096255
12403259 226 18335988584244568579
12633257 1 18054787553078973728
12788726 201 17331670254807578234
13122387 1 18122340173200242277
13140716 1 17980200008777032378
13402501 40 18194123147039839521
1361 2 17835791277357234303
138480 1 18340774753938398050
140371 6 17835244446078490718
14114211 68 18046095844978636750
14114211 80 17690311581806432085
14466204 15 18339070588730723666
14866123 147 16536799137019331290
14931854 50 17545030512215730183
17138139 8 16468632761907833316
17921350 177 18131351894997303894
19930381 70 18267864055078562843
20600515 1 17757523297710179210
20775438 99 17693324094092134263
21033648 29 17551521371577880913
221357 26 18337955567623308919
23536364 44 18197242294509179126
23559900 14 18265321829491724719
238 59 18125973122927249469
3524813 1 18195815299560960696
463206 1 17979640030877825512
484989 97 18118124676533251509
6287921 2 16537930092144125857
6442390 28 17907301309776123678
70251023 43 18269815585318583391
7226269 152 17759228601633066442
7808743 9 17183631434087503948

> <PUBCHEM_SHAPE_MULTIPOLES>
540.32
7.77
6.46
1.46
4.19
0.57
-0.05
-2.98
1.8
-4.49
-1.2
1.04
0.95
2.64

> <PUBCHEM_SHAPE_SELFOVERLAP>
1148.644

> <PUBCHEM_SHAPE_VOLUME>
305.4

> <PUBCHEM_COORDINATE_TYPE>
2
5
10

$$$$
49830293
  -OEChem-05102415023D

 42 45  0     0  0  0  0  0  0999 V2000
   -0.2162   -5.0681   -0.2590 Cl  0  0  0  0  0  0  0  0  0  0  0  0
    6.0692    1.2697   -1.2879 O   0  0  0  0  0  0  0  0  0  0  0  0
    2.2838   -0.7536    0.6201 N   0  0  0  0  0  0  0  0  0  0  0  0
   -0.0394   -0.6600    0.2670 N   0  0  0  0  0  0  0  0  0  0  0  0
   -1.2560   -2.6971   -0.1543 N   0  0  0  0  0  0  0  0  0  0  0  0
   -4.5462   -0.2310   -0.3960 N   0  0  0  0  0  0  0  0  0  0  0  0
   -4.6196    2.1634   -0.1416 N   0  0  0  0  0  0  0  0  0  0  0  0
    2.3998    0.6803    0.8003 C   0  0  0  0  0  0  0  0  0  0  0  0
    3.6694    1.0037    1.5929 C   0  0  0  0  0  0  0  0  0  0  0  0
    2.3720    1.3894   -0.5573 C   0  0  0  0  0  0  0  0  0  0  0  0
    4.8951    1.5724   -0.5420 C   0  0  0  0  0  0  0  0  0  0  0  0
    4.9442    0.8043    0.7758 C   0  0  0  0  0  0  0  0  0  0  0  0
    3.6592    1.2015   -1.3584 C   0  0  0  0  0  0  0  0  0  0  0  0
    1.0875   -1.3958    0.3606 C   0  0  0  0  0  0  0  0  0  0  0  0
    1.1221   -2.7673    0.2110 C   0  0  0  0  0  0  0  0  0  0  0  0
   -1.1585   -1.3642    0.0115 C   0  0  0  0  0  0  0  0  0  0  0  0
   -2.3754   -0.6155   -0.0947 C   0  0  0  0  0  0  0  0  0  0  0  0
   -2.6007    0.7815    0.0247 C   0  0  0  0  0  0  0  0  0  0  0  0
   -0.0918   -3.3706   -0.0477 C   0  0  0  0  0  0  0  0  0  0  0  0
   -3.9636    0.9879   -0.1682 C   0  0  0  0  0  0  0  0  0  0  0  0
   -3.5904   -1.2126   -0.3530 C   0  0  0  0  0  0  0  0  0  0  0  0
   -1.8053    1.9113    0.2765 C   0  0  0  0  0  0  0  0  0  0  0  0
   -2.4341    3.1544    0.3151 C   0  0  0  0  0  0  0  0  0  0  0  0
   -3.8051    3.2160    0.1046 C   0  0  0  0  0  0  0  0  0  0  0  0
    1.5528    1.0334    1.4026 H   0  0  0  0  0  0  0  0  0  0  0  0
    3.6250    2.0505    1.9202 H   0  0  0  0  0  0  0  0  0  0  0  0
    3.7204    0.3908    2.5011 H   0  0  0  0  0  0  0  0  0  0  0  0
    1.5206    1.0616   -1.1643 H   0  0  0  0  0  0  0  0  0  0  0  0
    2.2300    2.4641   -0.3833 H   0  0  0  0  0  0  0  0  0  0  0  0
    4.8979    2.6497   -0.3373 H   0  0  0  0  0  0  0  0  0  0  0  0
    5.1144   -0.2620    0.5810 H   0  0  0  0  0  0  0  0  0  0  0  0
    5.8130    1.1332    1.3592 H   0  0  0  0  0  0  0  0  0  0  0  0
    3.6221    1.8096   -2.2704 H   0  0  0  0  0  0  0  0  0  0  0  0
    3.7405    0.1623   -1.7024 H   0  0  0  0  0  0  0  0  0  0  0  0
    3.1307   -1.2655    0.3955 H   0  0  0  0  0  0  0  0  0  0  0  0
    6.0241    1.7698   -2.1207 H   0  0  0  0  0  0  0  0  0  0  0  0
    2.0400   -3.3381    0.2912 H   0  0  0  0  0  0  0  0  0  0  0  0
   -3.8760   -2.2438   -0.5131 H   0  0  0  0  0  0  0  0  0  0  0  0
   -5.5303   -0.3822   -0.5688 H   0  0  0  0  0  0  0  0  0  0  0  0
   -0.7353    1.8451    0.4386 H   0  0  0  0  0  0  0  0  0  0  0  0
   -1.8622    4.0562    0.5060 H   0  0  0  0  0  0  0  0  0  0  0  0
   -4.3117    4.1772    0.1311 H   0  0  0  0  0  0  0  0  0  0  0  0
  1 19  1  0  0  0  0
  2 11  1  0  0  0  0
  2 36  1  0  0  0  0
  3  8  1  0  0  0  0
  3 14  1  0  0  0  0
  3 35  1  0  0  0  0
  4 14  1  0  0  0  0
  4 16  2  0  0  0  0
  5 16  1  0  0  0  0
  5 19  2  0  0  0  0
  6 20  1  0  0  0  0
  6 21  1  0  0  0  0
  6 39  1  0  0  0  0
  7 20  1  0  0  0  0
  7 24  2  0  0  0  0
  8  9  1  0  0  0  0
  8 10  1  0  0  0  0
  8 25  1  0  0  0  0
  9 12  1  0  0  0  0
  9 26  1  0  0  0  0
  9 27  1  0  0  0  0
 10 13  1  0  0  0  0
 10 28  1  0  0  0  0
 10 29  1  0  0  0  0
 11 12  1  0  0  0  0
 11 13  1  0  0  0  0
 11 30  1  0  0  0  0
 12 31  1  0  0  0  0
 12 32  1  0  0  0  0
 13 33  1  0  0  0  0
 13 34  1  0  0  0  0
 14 15  2  0  0  0  0
 15 19  1  0  0  0  0
 15 37  1  0  0  0  0
 16 17  1  0  0  0  0
 17 18  1  0  0  0  0
 17 21  2  0  0  0  0
 18 20  2  0  0  0  0
 18 22  1  0  0  0  0
 21 38  1  0  0  0  0
 22 23  2  0  0  0  0
 22 40  1  0  0  0  0
 23 24  1  0  0  0  0
 23 41  1  0  0  0  0
 24 42  1  0  0  0  0
M  END
> <PUBCHEM_COMPOUND_CID>
49830293

> <PUBCHEM_CONFORMER_RMSD>
0.8

> <PUBCHEM_CONFORMER_DIVERSEORDER>
1
17
62
18
37
15
34
25
53
57
22
63
65
42
64
60
55
21
39
52
12
32
36
23
54
73
31
45
69
4
68
26
14
24
71
49
16
70
41
46
7
61
10
48
30
67
50
9
47
28
8
59
40
20
43
19
33
72
56
51
58
66
6
35
44
2
11
27
29
38
13
3
5

> <PUBCHEM_MMFF94_PARTIAL_CHARGES>
27
1 -0.18
11 0.28
14 0.41
15 -0.15
16 0.67
17 -0.05
19 0.49
2 -0.68
20 0.11
21 -0.3
22 -0.15
23 -0.15
24 0.16
3 -0.87
35 0.4
36 0.4
37 0.15
38 0.15
39 0.27
4 -0.62
40 0.15
41 0.15
42 0.15
5 -0.62
6 0.03
7 -0.57
8 0.37

> <PUBCHEM_EFFECTIVE_ROTOR_COUNT>
4.2

> <PUBCHEM_PHARMACOPHORE_FEATURES>
13
1 2 acceptor
1 2 donor
1 3 cation
1 3 donor
1 5 acceptor
1 6 cation
1 6 donor
1 7 acceptor
3 4 5 16 cation
5 6 17 18 20 21 rings
6 4 5 14 15 16 19 rings
6 7 18 20 22 23 24 rings
6 8 9 10 11 12 13 rings

> <PUBCHEM_HEAVY_ATOM_COUNT>
24

> <PUBCHEM_ATOM_DEF_STEREO_COUNT>
0

> <PUBCHEM_ATOM_UDEF_STEREO_COUNT>
0

> <PUBCHEM_BOND_DEF_STEREO_COUNT>
0

> <PUBCHEM_BOND_UDEF_STEREO_COUNT>
0

> <PUBCHEM_ISOTOPIC_ATOM_COUNT>
0

> <PUBCHEM_COMPONENT_COUNT>
1

> <PUBCHEM_CACTVS_TAUTO_COUNT>
9

> <PUBCHEM_CONFORMER_ID>
02F8599500000001

> <PUBCHEM_MMFF94_ENERGY>
51.8134

> <PUBCHEM_FEATURE_SELFOVERLAP>
66.085

> <PUBCHEM_SHAPE_FINGERPRINT>
10411042 1 17474103679840956418
10498660 4 18412542093991601081
10615611 76 17531544177562808236
10670039 82 18409168822651244596
10871710 139 18411979183119835277
1100329 8 17906166609993527135
11370993 144 13984923118304926980
11582403 64 16339712043175635674
11725454 13 16986563559980312882
12107183 9 18262506028085605898
12173636 292 18340196470851444807
12390115 104 18272661125478965657
12788726 201 17756160233883217422
13140716 1 17976819019137760675
138480 1 17547007429537736251
13911987 19 18263630905489636311
14114211 68 18196111974706922433
14251757 5 18267876158333404020
14251764 75 18198633129174047241
14508225 48 17478038823335086623
14739800 52 18050271859758193000
14767858 380 18267847524150328911
14790565 3 18409731733933986180
14840074 17 17530692021549281292
15042514 8 18049163559878041227
15163728 17 18338246980831874510
15183329 4 18336838524634596500
15297060 5 18342466910844475744
15575132 122 18040433291366278861
17818456 19 18337376202657732362
20101258 96 17471021740189657362
20775438 99 16545767355424753087
21133410 127 17825393981535399316
22122407 14 15864067697639140709
23366157 5 17974003955817351659
23559900 14 17910661078235427563
3091708 16 9482044791752622379
350125 39 18266457616091659154
394222 165 18187919526279277442
474 4 18114743733331693401
5048184 11 18338519642541527033
5486654 2 18339077207143880039
6287921 2 18192436264332431365
6700243 42 17334257840092292990
7064713 232 18335974299072429320
7808743 9 18337391668613671992
9709674 26 18052252891890165339
9981440 41 18408321077600558411

> <PUBCHEM_SHAPE_MULTIPOLES>
465
10.27
4.9
0.97
7.19
5.72
0
-10.01
1.64
-2.9
0.22
1.32
-0.34
-0.76

> <PUBCHEM_SHAPE_SELFOVERLAP>
1012.034

> <PUBCHEM_SHAPE_VOLUME>
253.7

> <PUBCHEM_COORDINATE_TYPE>
2
5
10

$$$$
49830309
  -OEChem-05102415023D

 53 56  0     0  0  0  0  0  0999 V2000
    3.5688   -4.8288    0.7312 Cl  0  0  0  0  0  0  0  0  0  0  0  0
   -6.0175   -0.2594    1.3173 O   0  0  0  0  0  0  0  0  0  0  0  0
   -0.2371   -2.1285   -0.7902 N   0  0  0  0  0  0  0  0  0  0  0  0
   -4.5179   -0.1141   -0.4492 N   0  0  0  0  0  0  0  0  0  0  0  0
   -6.1169    1.5137   -0.1761 N   0  0  0  0  0  0  0  0  0  0  0  0
    1.6357   -0.9240   -0.1375 N   0  0  0  0  0  0  0  0  0  0  0  0
    1.6066   -3.3323   -0.0591 N   0  0  0  0  0  0  0  0  0  0  0  0
    4.8886    1.8351    1.4142 N   0  0  0  0  0  0  0  0  0  0  0  0
    4.3567    3.7579    0.0636 N   0  0  0  0  0  0  0  0  0  0  0  0
   -0.9722   -0.9196   -1.1070 C   0  0  0  0  0  0  0  0  0  0  0  0
   -3.7798   -1.3231   -0.1621 C   0  0  0  0  0  0  0  0  0  0  0  0
   -2.1054   -1.2291   -2.0883 C   0  0  0  0  0  0  0  0  0  0  0  0
   -1.4859   -0.2705    0.1799 C   0  0  0  0  0  0  0  0  0  0  0  0
   -3.2733   -1.9838   -1.4468 C   0  0  0  0  0  0  0  0  0  0  0  0
   -2.6388   -1.0476    0.8197 C   0  0  0  0  0  0  0  0  0  0  0  0
    1.0578   -2.1282   -0.3090 C   0  0  0  0  0  0  0  0  0  0  0  0
   -5.5898    0.3250    0.3227 C   0  0  0  0  0  0  0  0  0  0  0  0
    2.8986   -0.9607    0.3356 C   0  0  0  0  0  0  0  0  0  0  0  0
   -7.2371    2.1899    0.4343 C   0  0  0  0  0  0  0  0  0  0  0  0
    3.5323    0.3126    0.5234 C   0  0  0  0  0  0  0  0  0  0  0  0
    2.8704   -3.2953    0.4119 C   0  0  0  0  0  0  0  0  0  0  0  0
    3.5730   -2.1279    0.6309 C   0  0  0  0  0  0  0  0  0  0  0  0
    3.3437    1.5370   -0.1708 C   0  0  0  0  0  0  0  0  0  0  0  0
    4.4888    0.5263    1.4925 C   0  0  0  0  0  0  0  0  0  0  0  0
    4.2038    2.4653    0.4086 C   0  0  0  0  0  0  0  0  0  0  0  0
   -6.8066    2.9982    1.6408 C   0  0  0  0  0  0  0  0  0  0  0  0
    2.5387    1.9773   -1.2340 C   0  0  0  0  0  0  0  0  0  0  0  0
    2.6572    3.3077   -1.6321 C   0  0  0  0  0  0  0  0  0  0  0  0
    3.5576    4.1270   -0.9644 C   0  0  0  0  0  0  0  0  0  0  0  0
   -0.3017   -0.2158   -1.6169 H   0  0  0  0  0  0  0  0  0  0  0  0
   -4.4792   -2.0174    0.3206 H   0  0  0  0  0  0  0  0  0  0  0  0
   -2.4800   -0.2850   -2.5034 H   0  0  0  0  0  0  0  0  0  0  0  0
   -1.7251   -1.8107   -2.9373 H   0  0  0  0  0  0  0  0  0  0  0  0
   -0.6856   -0.1506    0.9189 H   0  0  0  0  0  0  0  0  0  0  0  0
   -1.8351    0.7432   -0.0560 H   0  0  0  0  0  0  0  0  0  0  0  0
   -4.0888   -2.0715   -2.1752 H   0  0  0  0  0  0  0  0  0  0  0  0
   -2.9520   -3.0069   -1.2154 H   0  0  0  0  0  0  0  0  0  0  0  0
   -2.2559   -2.0038    1.1985 H   0  0  0  0  0  0  0  0  0  0  0  0
   -3.0072   -0.4923    1.6908 H   0  0  0  0  0  0  0  0  0  0  0  0
   -0.6914   -3.0294   -0.8829 H   0  0  0  0  0  0  0  0  0  0  0  0
   -4.1994    0.4828   -1.2061 H   0  0  0  0  0  0  0  0  0  0  0  0
   -5.6919    1.9293   -0.9992 H   0  0  0  0  0  0  0  0  0  0  0  0
   -7.6798    2.8432   -0.3239 H   0  0  0  0  0  0  0  0  0  0  0  0
   -7.9838    1.4444    0.7275 H   0  0  0  0  0  0  0  0  0  0  0  0
    4.5923   -2.1525    0.9978 H   0  0  0  0  0  0  0  0  0  0  0  0
    4.9242   -0.1191    2.2437 H   0  0  0  0  0  0  0  0  0  0  0  0
   -7.6637    3.5227    2.0740 H   0  0  0  0  0  0  0  0  0  0  0  0
   -6.0530    3.7431    1.3639 H   0  0  0  0  0  0  0  0  0  0  0  0
   -6.3718    2.3584    2.4155 H   0  0  0  0  0  0  0  0  0  0  0  0
    5.5808    2.2702    2.0081 H   0  0  0  0  0  0  0  0  0  0  0  0
    1.8457    1.3157   -1.7427 H   0  0  0  0  0  0  0  0  0  0  0  0
    2.0574    3.6943   -2.4491 H   0  0  0  0  0  0  0  0  0  0  0  0
    3.6628    5.1670   -1.2620 H   0  0  0  0  0  0  0  0  0  0  0  0
  1 21  1  0  0  0  0
  2 17  2  0  0  0  0
  3 10  1  0  0  0  0
  3 16  1  0  0  0  0
  3 40  1  0  0  0  0
  4 11  1  0  0  0  0
  4 17  1  0  0  0  0
  4 41  1  0  0  0  0
  5 17  1  0  0  0  0
  5 19  1  0  0  0  0
  5 42  1  0  0  0  0
  6 16  2  0  0  0  0
  6 18  1  0  0  0  0
  7 16  1  0  0  0  0
  7 21  2  0  0  0  0
  8 24  1  0  0  0  0
  8 25  1  0  0  0  0
  8 50  1  0  0  0  0
  9 25  1  0  0  0  0
  9 29  2  0  0  0  0
 10 12  1  0  0  0  0
 10 13  1  0  0  0  0
 10 30  1  0  0  0  0
 11 14  1  0  0  0  0
 11 15  1  0  0  0  0
 11 31  1  0  0  0  0
 12 14  1  0  0  0  0
 12 32  1  0  0  0  0
 12 33  1  0  0  0  0
 13 15  1  0  0  0  0
 13 34  1  0  0  0  0
 13 35  1  0  0  0  0
 14 36  1  0  0  0  0
 14 37  1  0  0  0  0
 15 38  1  0  0  0  0
 15 39  1  0  0  0  0
 18 20  1  0  0  0  0
 18 22  2  0  0  0  0
 19 26  1  0  0  0  0
 19 43  1  0  0  0  0
 19 44  1  0  0  0  0
 20 23  1  0  0  0  0
 20 24  2  0  0  0  0
 21 22  1  0  0  0  0
 22 45  1  0  0  0  0
 23 25  2  0  0  0  0
 23 27  1  0  0  0  0
 24 46  1  0  0  0  0
 26 47  1  0  0  0  0
 26 48  1  0  0  0  0
 26 49  1  0  0  0  0
 27 28  2  0  0  0  0
 27 51  1  0  0  0  0
 28 29  1  0  0  0  0
 28 52  1  0  0  0  0
 29 53  1  0  0  0  0
M  END
> <PUBCHEM_COMPOUND_CID>
49830309

> <PUBCHEM_CONFORMER_RMSD>
1.2

> <PUBCHEM_CONFORMER_DIVERSEORDER>
1
51
16
7
66
28
35
37
39
29
40
53
54
42
26
59
21
13
10
19
38
45
31
18
58
56
50
68
49
12
41
52
47
5
64
4
32
61
70
24
44
69
20
36
25
8
30
14
67
63
2
33
60
22
34
23
46
9
48
55
6
17
11
57
27
65
62
71
15
3
43

> <PUBCHEM_MMFF94_PARTIAL_CHARGES>
32
1 -0.18
10 0.37
11 0.3
16 0.72
17 0.69
18 0.36
19 0.3
2 -0.57
20 -0.05
21 0.49
22 -0.15
24 -0.3
25 0.11
27 -0.15
28 -0.15
29 0.16
3 -0.87
4 -0.73
40 0.4
41 0.37
42 0.37
45 0.15
46 0.15
5 -0.73
50 0.27
51 0.15
52 0.15
53 0.15
6 -0.62
7 -0.62
8 0.03
9 -0.57

> <PUBCHEM_EFFECTIVE_ROTOR_COUNT>
8.2

> <PUBCHEM_PHARMACOPHORE_FEATURES>
13
1 2 acceptor
1 3 donor
1 4 donor
1 5 donor
1 7 acceptor
1 8 cation
1 8 donor
1 9 acceptor
4 3 6 7 16 cation
5 8 20 23 24 25 rings
6 10 11 12 13 14 15 rings
6 6 7 16 18 21 22 rings
6 9 23 25 27 28 29 rings

> <PUBCHEM_HEAVY_ATOM_COUNT>
29

> <PUBCHEM_ATOM_DEF_STEREO_COUNT>
0

> <PUBCHEM_ATOM_UDEF_STEREO_COUNT>
0

> <PUBCHEM_BOND_DEF_STEREO_COUNT>
0

> <PUBCHEM_BOND_UDEF_STEREO_COUNT>
0

> <PUBCHEM_ISOTOPIC_ATOM_COUNT>
0

> <PUBCHEM_COMPONENT_COUNT>
1

> <PUBCHEM_CACTVS_TAUTO_COUNT>
48

> <PUBCHEM_CONFORMER_ID>
02F859A500000001

> <PUBCHEM_MMFF94_ENERGY>
51.4751

> <PUBCHEM_FEATURE_SELFOVERLAP>
66.136

> <PUBCHEM_SHAPE_FINGERPRINT>
100830 2 18340495572733147373
10674148 151 18266474273051721492
10763959 59 18057051215914109759
10917259 69 18120380019870510772
10937287 8 18048878790982414326
12061779 8 17058683744740624889
12107183 9 18197775493198370731
12422481 6 18113617868265189725
12633257 1 17095796741137401882
13785724 45 18051979121393908294
13878862 14 18267001896228407621
14114211 80 17899427660039741716
14251764 75 17974013039573163924
14790565 3 18194685005955789437
15348495 7 18187374190777819483
15439362 3 18339929346278108172
16992787 43 18409454662164320230
17810953 82 18410576201471075276
20511986 3 17917417761438869801
20715895 44 18411134732024435945
21315764 268 18190460459766319253
22122407 14 18340781347150703473
23559900 14 18335422326876211603
245318 6 18262528116232256973
24771293 8 18199162106827310994
373842 8 18337671889629250485
397830 11 18114756997071691467
4409770 3 16968571894960100966
474 4 18264757934756748710
5104073 3 18334295349602315755
57724786 102 18411979131416645287
6058803 2 18199729471010528831
633830 44 18269836578870410190
68570916 9 18413670198234602683

> <PUBCHEM_SHAPE_MULTIPOLES>
557.94
15.64
5.67
1.48
31.38
0.27
0.26
12.51
-6.66
-8.29
0.19
0.49
0.42
-3.19

> <PUBCHEM_SHAPE_SELFOVERLAP>
1193.813

> <PUBCHEM_SHAPE_VOLUME>
309.2

> <PUBCHEM_COORDINATE_TYPE>
2
5
10

$$$$
49830315
  -OEChem-05102415023D

 43 46  0     1  0  0  0  0  0999 V2000
    0.5419   -5.1057   -0.2572 Cl  0  0  0  0  0  0  0  0  0  0  0  0
    2.4737   -0.6045   -0.5528 N   0  0  0  0  0  0  0  0  0  0  0  0
    2.1215    2.7859    0.9296 N   0  0  0  0  0  0  0  0  0  0  0  0
    0.1938   -0.6782   -0.1337 N   0  0  0  0  0  0  0  0  0  0  0  0
    1.4845   -2.6961   -0.3968 N   0  0  0  0  0  0  0  0  0  0  0  0
   -4.1655   -0.3495    1.0895 N   0  0  0  0  0  0  0  0  0  0  0  0
   -4.6032    1.8301    0.1614 N   0  0  0  0  0  0  0  0  0  0  0  0
    2.4828    0.8475   -0.5380 C   0  0  1  0  0  0  0  0  0  0  0  0
    2.4625    1.3587    0.9156 C   0  0  1  0  0  0  0  0  0  0  0  0
    3.6913    1.3598   -1.3324 C   0  0  0  0  0  0  0  0  0  0  0  0
    3.8154    1.1528    1.6170 C   0  0  0  0  0  0  0  0  0  0  0  0
    5.0169    1.1349   -0.6050 C   0  0  0  0  0  0  0  0  0  0  0  0
    4.9929    1.7005    0.8112 C   0  0  0  0  0  0  0  0  0  0  0  0
    1.3354   -1.3585   -0.3517 C   0  0  0  0  0  0  0  0  0  0  0  0
   -0.8991   -1.4461    0.0566 C   0  0  0  0  0  0  0  0  0  0  0  0
   -2.1252   -0.7396    0.2923 C   0  0  0  0  0  0  0  0  0  0  0  0
   -2.5471    0.5354   -0.1694 C   0  0  0  0  0  0  0  0  0  0  0  0
   -0.8798   -2.8257    0.0349 C   0  0  0  0  0  0  0  0  0  0  0  0
    0.3520   -3.4022   -0.1986 C   0  0  0  0  0  0  0  0  0  0  0  0
   -3.8226    0.7485    0.3452 C   0  0  0  0  0  0  0  0  0  0  0  0
   -3.1411   -1.2599    1.0647 C   0  0  0  0  0  0  0  0  0  0  0  0
   -1.9961    1.5484   -0.9709 C   0  0  0  0  0  0  0  0  0  0  0  0
   -2.7622    2.6910   -1.1938 C   0  0  0  0  0  0  0  0  0  0  0  0
   -4.0228    2.7725   -0.6177 C   0  0  0  0  0  0  0  0  0  0  0  0
    1.5914    1.2057   -1.0713 H   0  0  0  0  0  0  0  0  0  0  0  0
    1.6945    0.8381    1.4993 H   0  0  0  0  0  0  0  0  0  0  0  0
    3.5716    2.4346   -1.5191 H   0  0  0  0  0  0  0  0  0  0  0  0
    3.7332    0.8753   -2.3158 H   0  0  0  0  0  0  0  0  0  0  0  0
    3.9700    0.0790    1.7842 H   0  0  0  0  0  0  0  0  0  0  0  0
    3.8060    1.6166    2.6113 H   0  0  0  0  0  0  0  0  0  0  0  0
    5.8275    1.6068   -1.1724 H   0  0  0  0  0  0  0  0  0  0  0  0
    5.2468    0.0636   -0.5664 H   0  0  0  0  0  0  0  0  0  0  0  0
    4.9393    2.7950    0.7683 H   0  0  0  0  0  0  0  0  0  0  0  0
    5.9311    1.4517    1.3203 H   0  0  0  0  0  0  0  0  0  0  0  0
    3.3423   -1.1108   -0.6777 H   0  0  0  0  0  0  0  0  0  0  0  0
    1.1946    2.9196    0.5272 H   0  0  0  0  0  0  0  0  0  0  0  0
    2.0668    3.1158    1.8924 H   0  0  0  0  0  0  0  0  0  0  0  0
   -1.7630   -3.4377    0.1747 H   0  0  0  0  0  0  0  0  0  0  0  0
   -3.2406   -2.1881    1.6114 H   0  0  0  0  0  0  0  0  0  0  0  0
   -5.0393   -0.4678    1.5832 H   0  0  0  0  0  0  0  0  0  0  0  0
   -1.0095    1.4587   -1.4132 H   0  0  0  0  0  0  0  0  0  0  0  0
   -2.3800    3.5004   -1.8066 H   0  0  0  0  0  0  0  0  0  0  0  0
   -4.6339    3.6562   -0.7813 H   0  0  0  0  0  0  0  0  0  0  0  0
  1 19  1  0  0  0  0
  2  8  1  0  0  0  0
  2 14  1  0  0  0  0
  2 35  1  0  0  0  0
  3  9  1  0  0  0  0
  3 36  1  0  0  0  0
  3 37  1  0  0  0  0
  4 14  2  0  0  0  0
  4 15  1  0  0  0  0
  5 14  1  0  0  0  0
  5 19  2  0  0  0  0
  6 20  1  0  0  0  0
  6 21  1  0  0  0  0
  6 40  1  0  0  0  0
  7 20  1  0  0  0  0
  7 24  2  0  0  0  0
  8  9  1  0  0  0  0
  8 10  1  0  0  0  0
  8 25  1  0  0  0  0
  9 11  1  0  0  0  0
  9 26  1  0  0  0  0
 10 12  1  0  0  0  0
 10 27  1  0  0  0  0
 10 28  1  0  0  0  0
 11 13  1  0  0  0  0
 11 29  1  0  0  0  0
 11 30  1  0  0  0  0
 12 13  1  0  0  0  0
 12 31  1  0  0  0  0
 12 32  1  0  0  0  0
 13 33  1  0  0  0  0
 13 34  1  0  0  0  0
 15 16  1  0  0  0  0
 15 18  2  0  0  0  0
 16 17  1  0  0  0  0
 16 21  2  0  0  0  0
 17 20  2  0  0  0  0
 17 22  1  0  0  0  0
 18 19  1  0  0  0  0
 18 38  1  0  0  0  0
 21 39  1  0  0  0  0
 22 23  2  0  0  0  0
 22 41  1  0  0  0  0
 23 24  1  0  0  0  0
 23 42  1  0  0  0  0
 24 43  1  0  0  0  0
M  END
> <PUBCHEM_COMPOUND_CID>
49830315

> <PUBCHEM_CONFORMER_RMSD>
0.8

> <PUBCHEM_CONFORMER_DIVERSEORDER>
1
30
105
68
36
32
135
13
91
140
117
150
86
47
35
119
39
90
41
158
171
152
111
128
131
151
19
88
17
82
100
81
78
154
118
168
34
127
21
126
114
69
93
122
20
27
113
84
143
101
156
144
15
170
55
96
95
10
63
7
133
58
167
155
136
149
33
62
141
102
50
53
103
92
108
28
94
157
80
26
5
142
159
59
161
87
54
98
6
60
137
124
132
18
148
147
123
11
104
79
125
48
66
73
107
121
145
51
44
169
97
70
8
173
134
164
14
139
37
65
172
165
130
31
61
162
153
89
77
116
43
56
160
22
75
166
23
29
52
120
106
67
16
129
12
72
146
163
3
74
109
110
112
38
99
83
138
9
64
25
2
76
4
85
24
71
45
57
115
40
46
49
42

> <PUBCHEM_MMFF94_PARTIAL_CHARGES>
28
1 -0.18
14 0.72
15 0.36
16 -0.05
18 -0.15
19 0.49
2 -0.87
20 0.11
21 -0.3
22 -0.15
23 -0.15
24 0.16
3 -0.99
35 0.4
36 0.36
37 0.36
38 0.15
39 0.15
4 -0.62
40 0.27
41 0.15
42 0.15
43 0.15
5 -0.62
6 0.03
7 -0.57
8 0.37
9 0.27

> <PUBCHEM_EFFECTIVE_ROTOR_COUNT>
4.2

> <PUBCHEM_PHARMACOPHORE_FEATURES>
12
1 2 donor
1 3 cation
1 3 donor
1 5 acceptor
1 6 cation
1 6 donor
1 7 acceptor
4 2 4 5 14 cation
5 6 16 17 20 21 rings
6 4 5 14 15 18 19 rings
6 7 17 20 22 23 24 rings
6 8 9 10 11 12 13 rings

> <PUBCHEM_HEAVY_ATOM_COUNT>
24

> <PUBCHEM_ATOM_DEF_STEREO_COUNT>
0

> <PUBCHEM_ATOM_UDEF_STEREO_COUNT>
2

> <PUBCHEM_BOND_DEF_STEREO_COUNT>
0

> <PUBCHEM_BOND_UDEF_STEREO_COUNT>
0

> <PUBCHEM_ISOTOPIC_ATOM_COUNT>
0

> <PUBCHEM_COMPONENT_COUNT>
1

> <PUBCHEM_CACTVS_TAUTO_COUNT>
16

> <PUBCHEM_CONFORMER_ID>
02F859AB00000001

> <PUBCHEM_MMFF94_ENERGY>
45.1395

> <PUBCHEM_FEATURE_SELFOVERLAP>
61.009

> <PUBCHEM_SHAPE_FINGERPRINT>
10165383 225 18269855218806655513
10670039 82 18188788235318114516
10759866 29 18040436590491706424
1100329 8 16827280239121013224
11370993 70 18411976966304936505
11552529 35 16735241671590751546
11725454 13 17917991719799626934
11833330 49 17691118661896471626
12403259 415 18339934748260107372
12422481 6 18044628972778172074
12549972 3 17462594722560646467
12596602 18 16443632422918307992
12633257 1 18269837691087591296
12769317 202 18268989795570247564
12788726 201 17611191842074930882
13134695 92 17620182140396017999
13140716 1 18263359188013801395
13402501 40 18411420622159149889
13540713 4 17970641684346649441
13544653 18 12468349172239393116
13726171 33 18189917438040041460
138480 1 17762336916308310478
14251757 5 18194698170658325228
14341114 328 17095526218501921464
14468879 13 18260274014632287353
14856354 85 16515687780048057642
15042514 8 17976827810667472115
15230672 131 18408326576177061910
15403338 16 16588566678585041129
20101258 96 17253731875958117106
21033648 29 18342730853991589544
21133410 32 14690579940432127148
21279426 13 18270690775341354462
21524375 3 18411985801221703238
22122407 14 17554631504170530385
22149856 69 18191330225473048505
23536364 44 17622751738098824390
23559900 14 18045224843017918559
3187 122 17044270529625289434
3298306 158 18341050739951776438
3524813 1 18341335590635962985
469060 322 18120950657250116507
495365 180 18268700615707044615
508706 21 18339924925933808334
5104073 3 18189064088514872561
5265222 85 18191886707036403790
5385378 56 18268435637393834577
57124632 79 18266730294959400026
6442390 28 18411143566571580318
7226269 152 17988638623693248264
7399639 24 18337121107286179611
7808743 9 18120662580950661708
81228 2 17692243462344226130
84936 182 18199186187479194497
9709674 26 18046635499768487447
9862522 239 18335409197076012214
9981440 41 18408038511654629731

> <PUBCHEM_SHAPE_MULTIPOLES>
465.89
9.28
4.87
1.16
2.93
6.34
-0.13
-9.39
-1.19
-0.64
0.84
0.52
-0.56
1.52

> <PUBCHEM_SHAPE_SELFOVERLAP>
1012.745

> <PUBCHEM_SHAPE_VOLUME>
253.9

> <PUBCHEM_COORDINATE_TYPE>
2
5
10

$$$$
49830308
  -OEChem-05102415033D

 53 56  0     0  0  0  0  0  0999 V2000
    3.6980   -4.7855    0.6219 Cl  0  0  0  0  0  0  0  0  0  0  0  0
   -5.9918   -0.4470    1.4206 O   0  0  0  0  0  0  0  0  0  0  0  0
   -0.1920   -2.1498   -0.7969 N   0  0  0  0  0  0  0  0  0  0  0  0
   -4.5141   -0.2452   -0.3598 N   0  0  0  0  0  0  0  0  0  0  0  0
    1.6608   -0.9129   -0.1477 N   0  0  0  0  0  0  0  0  0  0  0  0
    1.6899   -3.3223   -0.1135 N   0  0  0  0  0  0  0  0  0  0  0  0
   -6.7832    2.1599    1.0383 N   0  0  0  0  0  0  0  0  0  0  0  0
    4.8689    1.8946    1.4102 N   0  0  0  0  0  0  0  0  0  0  0  0
    4.2726    3.8284    0.1030 N   0  0  0  0  0  0  0  0  0  0  0  0
   -0.9600   -0.9533   -1.0811 C   0  0  0  0  0  0  0  0  0  0  0  0
   -3.7436   -1.4412   -0.1053 C   0  0  0  0  0  0  0  0  0  0  0  0
   -2.0993   -1.2720   -2.0523 C   0  0  0  0  0  0  0  0  0  0  0  0
   -1.4706   -0.3403    0.2246 C   0  0  0  0  0  0  0  0  0  0  0  0
   -3.2398   -2.0660   -1.4089 C   0  0  0  0  0  0  0  0  0  0  0  0
   -2.5957   -1.1564    0.8656 C   0  0  0  0  0  0  0  0  0  0  0  0
   -5.5820    0.1549    0.4305 C   0  0  0  0  0  0  0  0  0  0  0  0
    1.1092   -2.1273   -0.3335 C   0  0  0  0  0  0  0  0  0  0  0  0
   -6.2233    1.4259   -0.0875 C   0  0  0  0  0  0  0  0  0  0  0  0
    2.9308   -0.9280    0.3074 C   0  0  0  0  0  0  0  0  0  0  0  0
    3.5367    0.3565    0.5100 C   0  0  0  0  0  0  0  0  0  0  0  0
    2.9590   -3.2636    0.3406 C   0  0  0  0  0  0  0  0  0  0  0  0
    3.6368   -2.0839    0.5717 C   0  0  0  0  0  0  0  0  0  0  0  0
    3.3093    1.5885   -0.1587 C   0  0  0  0  0  0  0  0  0  0  0  0
    4.5015    0.5754    1.4697 C   0  0  0  0  0  0  0  0  0  0  0  0
    4.1552    2.5264    0.4260 C   0  0  0  0  0  0  0  0  0  0  0  0
   -7.4232    3.3903    0.5920 C   0  0  0  0  0  0  0  0  0  0  0  0
    2.4792    2.0287   -1.2024 C   0  0  0  0  0  0  0  0  0  0  0  0
    2.5604    3.3686   -1.5774 C   0  0  0  0  0  0  0  0  0  0  0  0
    3.4505    4.1969   -0.9070 C   0  0  0  0  0  0  0  0  0  0  0  0
   -0.3136   -0.2245   -1.5870 H   0  0  0  0  0  0  0  0  0  0  0  0
   -4.4197   -2.1603    0.3741 H   0  0  0  0  0  0  0  0  0  0  0  0
   -2.5016   -0.3298   -2.4452 H   0  0  0  0  0  0  0  0  0  0  0  0
   -1.7173   -1.8290   -2.9169 H   0  0  0  0  0  0  0  0  0  0  0  0
   -0.6631   -0.2147    0.9546 H   0  0  0  0  0  0  0  0  0  0  0  0
   -1.8472    0.6688    0.0123 H   0  0  0  0  0  0  0  0  0  0  0  0
   -4.0631   -2.1601   -2.1277 H   0  0  0  0  0  0  0  0  0  0  0  0
   -2.8910   -3.0852   -1.2009 H   0  0  0  0  0  0  0  0  0  0  0  0
   -2.1849   -2.1098    1.2214 H   0  0  0  0  0  0  0  0  0  0  0  0
   -2.9648   -0.6260    1.7519 H   0  0  0  0  0  0  0  0  0  0  0  0
   -0.6260   -3.0596   -0.9000 H   0  0  0  0  0  0  0  0  0  0  0  0
   -4.2268    0.3490   -1.1317 H   0  0  0  0  0  0  0  0  0  0  0  0
   -7.0050    1.1339   -0.7979 H   0  0  0  0  0  0  0  0  0  0  0  0
   -5.4795    2.0372   -0.6112 H   0  0  0  0  0  0  0  0  0  0  0  0
   -6.0393    2.3939    1.6957 H   0  0  0  0  0  0  0  0  0  0  0  0
    4.6614   -2.0907    0.9240 H   0  0  0  0  0  0  0  0  0  0  0  0
    4.9626   -0.0730    2.2027 H   0  0  0  0  0  0  0  0  0  0  0  0
    5.5590    2.3353    2.0025 H   0  0  0  0  0  0  0  0  0  0  0  0
   -7.8423    3.9167    1.4551 H   0  0  0  0  0  0  0  0  0  0  0  0
   -6.7087    4.0605    0.1030 H   0  0  0  0  0  0  0  0  0  0  0  0
   -8.2474    3.1801   -0.0974 H   0  0  0  0  0  0  0  0  0  0  0  0
    1.7949    1.3600   -1.7137 H   0  0  0  0  0  0  0  0  0  0  0  0
    1.9401    3.7556   -2.3787 H   0  0  0  0  0  0  0  0  0  0  0  0
    3.5268    5.2444   -1.1866 H   0  0  0  0  0  0  0  0  0  0  0  0
  1 21  1  0  0  0  0
  2 16  2  0  0  0  0
  3 10  1  0  0  0  0
  3 17  1  0  0  0  0
  3 40  1  0  0  0  0
  4 11  1  0  0  0  0
  4 16  1  0  0  0  0
  4 41  1  0  0  0  0
  5 17  2  0  0  0  0
  5 19  1  0  0  0  0
  6 17  1  0  0  0  0
  6 21  2  0  0  0  0
  7 18  1  0  0  0  0
  7 26  1  0  0  0  0
  7 44  1  0  0  0  0
  8 24  1  0  0  0  0
  8 25  1  0  0  0  0
  8 47  1  0  0  0  0
  9 25  1  0  0  0  0
  9 29  2  0  0  0  0
 10 12  1  0  0  0  0
 10 13  1  0  0  0  0
 10 30  1  0  0  0  0
 11 14  1  0  0  0  0
 11 15  1  0  0  0  0
 11 31  1  0  0  0  0
 12 14  1  0  0  0  0
 12 32  1  0  0  0  0
 12 33  1  0  0  0  0
 13 15  1  0  0  0  0
 13 34  1  0  0  0  0
 13 35  1  0  0  0  0
 14 36  1  0  0  0  0
 14 37  1  0  0  0  0
 15 38  1  0  0  0  0
 15 39  1  0  0  0  0
 16 18  1  0  0  0  0
 18 42  1  0  0  0  0
 18 43  1  0  0  0  0
 19 20  1  0  0  0  0
 19 22  2  0  0  0  0
 20 23  1  0  0  0  0
 20 24  2  0  0  0  0
 21 22  1  0  0  0  0
 22 45  1  0  0  0  0
 23 25  2  0  0  0  0
 23 27  1  0  0  0  0
 24 46  1  0  0  0  0
 26 48  1  0  0  0  0
 26 49  1  0  0  0  0
 26 50  1  0  0  0  0
 27 28  2  0  0  0  0
 27 51  1  0  0  0  0
 28 29  1  0  0  0  0
 28 52  1  0  0  0  0
 29 53  1  0  0  0  0
M  END
> <PUBCHEM_COMPOUND_CID>
49830308

> <PUBCHEM_CONFORMER_RMSD>
1

> <PUBCHEM_CONFORMER_DIVERSEORDER>
1
58
11
29
13
26
42
31
59
50
52
14
6
39
43
55
49
38
20
56
16
60
15
36
48
35
12
61
10
47
22
24
4
53
21
19
27
18
40
34
45
57
23
25
5
54
30
41
9
3
2
46
62
37
44
32
17
33
51
28
8
7

> <PUBCHEM_MMFF94_PARTIAL_CHARGES>
33
1 -0.18
10 0.37
11 0.3
16 0.57
17 0.72
18 0.33
19 0.36
2 -0.57
20 -0.05
21 0.49
22 -0.15
24 -0.3
25 0.11
26 0.27
27 -0.15
28 -0.15
29 0.16
3 -0.87
4 -0.73
40 0.4
41 0.37
44 0.36
45 0.15
46 0.15
47 0.27
5 -0.62
51 0.15
52 0.15
53 0.15
6 -0.62
7 -0.9
8 0.03
9 -0.57

> <PUBCHEM_EFFECTIVE_ROTOR_COUNT>
8.2

> <PUBCHEM_PHARMACOPHORE_FEATURES>
14
1 2 acceptor
1 3 donor
1 4 donor
1 6 acceptor
1 7 cation
1 7 donor
1 8 cation
1 8 donor
1 9 acceptor
4 3 5 6 17 cation
5 8 20 23 24 25 rings
6 10 11 12 13 14 15 rings
6 5 6 17 19 21 22 rings
6 9 23 25 27 28 29 rings

> <PUBCHEM_HEAVY_ATOM_COUNT>
29

> <PUBCHEM_ATOM_DEF_STEREO_COUNT>
0

> <PUBCHEM_ATOM_UDEF_STEREO_COUNT>
0

> <PUBCHEM_BOND_DEF_STEREO_COUNT>
0

> <PUBCHEM_BOND_UDEF_STEREO_COUNT>
0

> <PUBCHEM_ISOTOPIC_ATOM_COUNT>
0

> <PUBCHEM_COMPONENT_COUNT>
1

> <PUBCHEM_CACTVS_TAUTO_COUNT>
32

> <PUBCHEM_CONFORMER_ID>
02F859A400000001

> <PUBCHEM_MMFF94_ENERGY>
57.2663

> <PUBCHEM_FEATURE_SELFOVERLAP>
71.16

> <PUBCHEM_SHAPE_FINGERPRINT>
10763959 59 18199757942448018471
10917259 69 18048603905083174772
10937287 8 18049161369771007774
12061779 8 16986906526162459609
12107183 9 18196931072547316843
12422481 6 18040711468346085357
12633257 1 17095796745437663418
13785724 45 18124318199056523246
13878862 14 18267847416369938229
14114211 80 17899709143627466484
14251764 75 17974013048152542476
14790565 3 18123190361892401253
15348495 7 18187655665749268355
15439362 3 18268153231511884148
16992787 43 18409736141446547686
17810953 82 18411139147076788228
20511986 3 17845924216839584809
20715895 44 18412544284635762873
21315764 268 18190743034275789117
21792938 324 17977080389694208536
22122407 14 18340218392928675585
23522609 53 11603963566985382495
23559900 14 18335704905664785611
245318 6 18262528124790497541
24771293 8 18199444681315681890
373842 8 18338235939094292937
397830 11 18187096074665832099
4144715 1 18260561026217526947
439807 62 8934994872735131569
4408954 64 17027946737976535384
4409770 3 17040630592809879238
474 4 18265321992822281886
5104073 3 18333731304363720659
57724786 102 18411696561239085423
6058803 2 18200010950271650791
633830 44 18270400632646250814

> <PUBCHEM_SHAPE_MULTIPOLES>
557.94
15.65
5.82
1.39
31.95
1.09
0.31
12.54
-6.37
-7.71
0.49
0.25
0.24
-2.45

> <PUBCHEM_SHAPE_SELFOVERLAP>
1193.39

> <PUBCHEM_SHAPE_VOLUME>
309.3

> <PUBCHEM_COORDINATE_TYPE>
2
5
10

$$$$
49830282
  -OEChem-05102415033D

 41 44  0     0  0  0  0  0  0999 V2000
   -0.4311   -4.9953    0.1977 Cl  0  0  0  0  0  0  0  0  0  0  0  0
   -2.6146   -0.4767   -0.4767 N   0  0  0  0  0  0  0  0  0  0  0  0
   -0.2788   -0.5745   -0.2179 N   0  0  0  0  0  0  0  0  0  0  0  0
    0.7883   -2.7109    0.1052 N   0  0  0  0  0  0  0  0  0  0  0  0
    4.2705   -0.5169    0.2676 N   0  0  0  0  0  0  0  0  0  0  0  0
    4.5231    1.8704    0.0662 N   0  0  0  0  0  0  0  0  0  0  0  0
   -2.6242    0.9672   -0.6188 C   0  0  0  0  0  0  0  0  0  0  0  0
   -3.8993    1.4160   -1.3399 C   0  0  0  0  0  0  0  0  0  0  0  0
   -2.4910    1.6321    0.7550 C   0  0  0  0  0  0  0  0  0  0  0  0
   -5.1521    1.2657   -0.4765 C   0  0  0  0  0  0  0  0  0  0  0  0
   -3.7487    1.4799    1.6106 C   0  0  0  0  0  0  0  0  0  0  0  0
   -4.9940    1.9605    0.8722 C   0  0  0  0  0  0  0  0  0  0  0  0
   -1.4632   -1.2173   -0.2819 C   0  0  0  0  0  0  0  0  0  0  0  0
   -1.6004   -2.5854   -0.1629 C   0  0  0  0  0  0  0  0  0  0  0  0
    0.7902   -1.3705   -0.0255 C   0  0  0  0  0  0  0  0  0  0  0  0
    2.0658   -0.7223    0.0476 C   0  0  0  0  0  0  0  0  0  0  0  0
    2.3961    0.6555   -0.0484 C   0  0  0  0  0  0  0  0  0  0  0  0
   -0.4289   -3.2883    0.0312 C   0  0  0  0  0  0  0  0  0  0  0  0
    3.7776    0.7494    0.0926 C   0  0  0  0  0  0  0  0  0  0  0  0
    3.2389   -1.4193    0.2415 C   0  0  0  0  0  0  0  0  0  0  0  0
    1.6834    1.8502   -0.2408 C   0  0  0  0  0  0  0  0  0  0  0  0
    2.4067    3.0410   -0.2765 C   0  0  0  0  0  0  0  0  0  0  0  0
    3.7856    2.9896   -0.1215 C   0  0  0  0  0  0  0  0  0  0  0  0
   -1.7781    1.2723   -1.2478 H   0  0  0  0  0  0  0  0  0  0  0  0
   -4.0306    0.8498   -2.2700 H   0  0  0  0  0  0  0  0  0  0  0  0
   -3.7937    2.4711   -1.6236 H   0  0  0  0  0  0  0  0  0  0  0  0
   -2.2988    2.7029    0.6076 H   0  0  0  0  0  0  0  0  0  0  0  0
   -1.6312    1.2382    1.3087 H   0  0  0  0  0  0  0  0  0  0  0  0
   -6.0115    1.6917   -1.0070 H   0  0  0  0  0  0  0  0  0  0  0  0
   -5.3782    0.2047   -0.3194 H   0  0  0  0  0  0  0  0  0  0  0  0
   -3.8760    0.4298    1.9000 H   0  0  0  0  0  0  0  0  0  0  0  0
   -3.6306    2.0509    2.5387 H   0  0  0  0  0  0  0  0  0  0  0  0
   -4.9306    3.0448    0.7183 H   0  0  0  0  0  0  0  0  0  0  0  0
   -5.8818    1.7774    1.4878 H   0  0  0  0  0  0  0  0  0  0  0  0
   -3.4899   -0.9287   -0.2339 H   0  0  0  0  0  0  0  0  0  0  0  0
   -2.5631   -3.0803   -0.2182 H   0  0  0  0  0  0  0  0  0  0  0  0
    3.4480   -2.4735    0.3655 H   0  0  0  0  0  0  0  0  0  0  0  0
    5.2456   -0.7491    0.3960 H   0  0  0  0  0  0  0  0  0  0  0  0
    0.6061    1.8721   -0.3601 H   0  0  0  0  0  0  0  0  0  0  0  0
    1.9009    3.9894   -0.4226 H   0  0  0  0  0  0  0  0  0  0  0  0
    4.3653    3.9086   -0.1466 H   0  0  0  0  0  0  0  0  0  0  0  0
  1 18  1  0  0  0  0
  2  7  1  0  0  0  0
  2 13  1  0  0  0  0
  2 35  1  0  0  0  0
  3 13  1  0  0  0  0
  3 15  2  0  0  0  0
  4 15  1  0  0  0  0
  4 18  2  0  0  0  0
  5 19  1  0  0  0  0
  5 20  1  0  0  0  0
  5 38  1  0  0  0  0
  6 19  1  0  0  0  0
  6 23  2  0  0  0  0
  7  8  1  0  0  0  0
  7  9  1  0  0  0  0
  7 24  1  0  0  0  0
  8 10  1  0  0  0  0
  8 25  1  0  0  0  0
  8 26  1  0  0  0  0
  9 11  1  0  0  0  0
  9 27  1  0  0  0  0
  9 28  1  0  0  0  0
 10 12  1  0  0  0  0
 10 29  1  0  0  0  0
 10 30  1  0  0  0  0
 11 12  1  0  0  0  0
 11 31  1  0  0  0  0
 11 32  1  0  0  0  0
 12 33  1  0  0  0  0
 12 34  1  0  0  0  0
 13 14  2  0  0  0  0
 14 18  1  0  0  0  0
 14 36  1  0  0  0  0
 15 16  1  0  0  0  0
 16 17  1  0  0  0  0
 16 20  2  0  0  0  0
 17 19  2  0  0  0  0
 17 21  1  0  0  0  0
 20 37  1  0  0  0  0
 21 22  2  0  0  0  0
 21 39  1  0  0  0  0
 22 23  1  0  0  0  0
 22 40  1  0  0  0  0
 23 41  1  0  0  0  0
M  END
> <PUBCHEM_COMPOUND_CID>
49830282

> <PUBCHEM_CONFORMER_RMSD>
0.8

> <PUBCHEM_CONFORMER_DIVERSEORDER>
1
9
24
44
35
52
18
43
3
36
41
27
13
11
12
45
15
6
32
48
19
31
20
40
47
49
51
5
37
21
26
38
29
50
25
33
28
14
42
17
46
39
8
34
10
4
22
16
30
2
23
7

> <PUBCHEM_MMFF94_PARTIAL_CHARGES>
24
1 -0.18
13 0.41
14 -0.15
15 0.67
16 -0.05
18 0.49
19 0.11
2 -0.87
20 -0.3
21 -0.15
22 -0.15
23 0.16
3 -0.62
35 0.4
36 0.15
37 0.15
38 0.27
39 0.15
4 -0.62
40 0.15
41 0.15
5 0.03
6 -0.57
7 0.37

> <PUBCHEM_EFFECTIVE_ROTOR_COUNT>
4.2

> <PUBCHEM_PHARMACOPHORE_FEATURES>
11
1 2 cation
1 2 donor
1 4 acceptor
1 5 cation
1 5 donor
1 6 acceptor
3 3 4 15 cation
5 5 16 17 19 20 rings
6 3 4 13 14 15 18 rings
6 6 17 19 21 22 23 rings
6 7 8 9 10 11 12 rings

> <PUBCHEM_HEAVY_ATOM_COUNT>
23

> <PUBCHEM_ATOM_DEF_STEREO_COUNT>
0

> <PUBCHEM_ATOM_UDEF_STEREO_COUNT>
0

> <PUBCHEM_BOND_DEF_STEREO_COUNT>
0

> <PUBCHEM_BOND_UDEF_STEREO_COUNT>
0

> <PUBCHEM_ISOTOPIC_ATOM_COUNT>
0

> <PUBCHEM_COMPONENT_COUNT>
1

> <PUBCHEM_CACTVS_TAUTO_COUNT>
9

> <PUBCHEM_CONFORMER_ID>
02F8598A00000001

> <PUBCHEM_MMFF94_ENERGY>
46.21

> <PUBCHEM_FEATURE_SELFOVERLAP>
55.934

> <PUBCHEM_SHAPE_FINGERPRINT>
10411042 1 17112974630748465742
10670039 82 17469894741357139468
1100329 8 18411134728108874042
11370993 70 18409722976200413589
11582403 64 16519018106052483439
11725454 13 17024568033486711037
12107183 9 18335403674671138706
12390115 104 18339939202135918709
12403260 363 18339628044672536542
12633257 1 18335972113102439124
12788726 201 18053083301688168751
13009979 54 16981801287321221931
13140716 1 18409169904550051051
13583140 156 17749109954872033523
13590594 115 17402897721845840651
138480 1 17762054337588269239
14178342 30 18048299335643851960
14767858 380 18199730592750119999
14787075 74 18271801380869798727
14790565 3 18411422808534795801
14955137 171 18047190744055149754
15475509 8 17842294566475812222
17138139 8 17771031038928854903
17834072 32 18411138051806996908
1813 80 16977589015325902911
18219364 16 18261671467983228445
19591789 44 17834962971354604198
19930381 70 18265048042628267285
20028762 73 18200304425164829534
204376 136 18410013213200084093
20510252 161 18195244644589619883
20739085 24 18119820114319472424
21033650 10 16915968221596936128
22182937 141 18339083816528368569
23227448 37 18410853308660796253
23558518 356 17972035001233004954
23559900 14 18272369785510560114
23845131 108 18334580127419387387
283562 15 17615404096884891490
335352 9 18410290294836766494
350125 39 18337957908284928851
3886686 26 17978188886536343890
474 4 18340485561068505881
5048184 11 18338238270506887908
5104073 3 18334850667182048280
6328613 192 18410579513851066804
633830 44 18201723899276749525
7832392 63 18410007784551365068

> <PUBCHEM_SHAPE_MULTIPOLES>
450.29
9.38
4.96
0.92
3.64
5.72
0.1
-9.49
0.57
-1.01
0.23
1.1
-0.4
-0.64

> <PUBCHEM_SHAPE_SELFOVERLAP>
979.801

> <PUBCHEM_SHAPE_VOLUME>
244.9

> <PUBCHEM_COORDINATE_TYPE>
2
5
10

$$$$
49830294
  -OEChem-05102415033D

 43 46  0     1  0  0  0  0  0999 V2000
    0.4142    5.0816    0.1709 Cl  0  0  0  0  0  0  0  0  0  0  0  0
    2.3726    0.6161    0.7340 N   0  0  0  0  0  0  0  0  0  0  0  0
    3.7945   -1.8806   -2.6319 N   0  0  0  0  0  0  0  0  0  0  0  0
    0.1135    0.6489    0.2045 N   0  0  0  0  0  0  0  0  0  0  0  0
    1.3714    2.6898    0.4492 N   0  0  0  0  0  0  0  0  0  0  0  0
   -4.1793    0.2247   -1.2099 N   0  0  0  0  0  0  0  0  0  0  0  0
   -4.6405   -1.9222   -0.2189 N   0  0  0  0  0  0  0  0  0  0  0  0
    2.3979   -0.8326    0.7769 C   0  0  1  0  0  0  0  0  0  0  0  0
    3.8008   -1.2151   -1.3285 C   0  0  1  0  0  0  0  0  0  0  0  0
    2.4398   -1.4082   -0.6436 C   0  0  0  0  0  0  0  0  0  0  0  0
    3.5797   -1.3090    1.6249 C   0  0  0  0  0  0  0  0  0  0  0  0
    4.9414   -1.7522   -0.4578 C   0  0  0  0  0  0  0  0  0  0  0  0
    4.9271   -1.1167    0.9301 C   0  0  0  0  0  0  0  0  0  0  0  0
    1.2370    1.3498    0.4495 C   0  0  0  0  0  0  0  0  0  0  0  0
   -0.9762    1.3967   -0.0672 C   0  0  0  0  0  0  0  0  0  0  0  0
   -2.1830    0.6680   -0.3329 C   0  0  0  0  0  0  0  0  0  0  0  0
   -2.6146   -0.5928    0.1579 C   0  0  0  0  0  0  0  0  0  0  0  0
   -0.9709    2.7763   -0.0987 C   0  0  0  0  0  0  0  0  0  0  0  0
    0.2431    3.3751    0.1702 C   0  0  0  0  0  0  0  0  0  0  0  0
   -3.8620   -0.8398   -0.4078 C   0  0  0  0  0  0  0  0  0  0  0  0
   -3.1658    1.1467   -1.1722 C   0  0  0  0  0  0  0  0  0  0  0  0
   -2.0931   -1.5679    1.0237 C   0  0  0  0  0  0  0  0  0  0  0  0
   -2.8583   -2.7095    1.2546 C   0  0  0  0  0  0  0  0  0  0  0  0
   -4.0893   -2.8272    0.6231 C   0  0  0  0  0  0  0  0  0  0  0  0
    1.4898   -1.1924    1.2778 H   0  0  0  0  0  0  0  0  0  0  0  0
    3.9635   -0.1435   -1.4990 H   0  0  0  0  0  0  0  0  0  0  0  0
    1.6480   -0.9757   -1.2674 H   0  0  0  0  0  0  0  0  0  0  0  0
    2.2231   -2.4839   -0.5785 H   0  0  0  0  0  0  0  0  0  0  0  0
    3.4501   -2.3771    1.8426 H   0  0  0  0  0  0  0  0  0  0  0  0
    3.5921   -0.7899    2.5911 H   0  0  0  0  0  0  0  0  0  0  0  0
    5.9083   -1.5525   -0.9358 H   0  0  0  0  0  0  0  0  0  0  0  0
    4.8573   -2.8422   -0.3552 H   0  0  0  0  0  0  0  0  0  0  0  0
    5.1593   -0.0484    0.8471 H   0  0  0  0  0  0  0  0  0  0  0  0
    5.7189   -1.5625    1.5432 H   0  0  0  0  0  0  0  0  0  0  0  0
    3.2288    1.1374    0.8810 H   0  0  0  0  0  0  0  0  0  0  0  0
    3.0685   -1.4746   -3.2209 H   0  0  0  0  0  0  0  0  0  0  0  0
    4.6799   -1.7110   -3.1073 H   0  0  0  0  0  0  0  0  0  0  0  0
   -1.8520    3.3725   -0.3040 H   0  0  0  0  0  0  0  0  0  0  0  0
   -3.2476    2.0519   -1.7590 H   0  0  0  0  0  0  0  0  0  0  0  0
   -5.0296    0.3141   -1.7486 H   0  0  0  0  0  0  0  0  0  0  0  0
   -1.1298   -1.4499    1.5086 H   0  0  0  0  0  0  0  0  0  0  0  0
   -2.4985   -3.4902    1.9162 H   0  0  0  0  0  0  0  0  0  0  0  0
   -4.6993   -3.7107    0.7921 H   0  0  0  0  0  0  0  0  0  0  0  0
  1 19  1  0  0  0  0
  2  8  1  0  0  0  0
  2 14  1  0  0  0  0
  2 35  1  0  0  0  0
  3  9  1  0  0  0  0
  3 36  1  0  0  0  0
  3 37  1  0  0  0  0
  4 14  2  0  0  0  0
  4 15  1  0  0  0  0
  5 14  1  0  0  0  0
  5 19  2  0  0  0  0
  6 20  1  0  0  0  0
  6 21  1  0  0  0  0
  6 40  1  0  0  0  0
  7 20  1  0  0  0  0
  7 24  2  0  0  0  0
  8 10  1  0  0  0  0
  8 11  1  0  0  0  0
  8 25  1  0  0  0  0
  9 10  1  0  0  0  0
  9 12  1  0  0  0  0
  9 26  1  0  0  0  0
 10 27  1  0  0  0  0
 10 28  1  0  0  0  0
 11 13  1  0  0  0  0
 11 29  1  0  0  0  0
 11 30  1  0  0  0  0
 12 13  1  0  0  0  0
 12 31  1  0  0  0  0
 12 32  1  0  0  0  0
 13 33  1  0  0  0  0
 13 34  1  0  0  0  0
 15 16  1  0  0  0  0
 15 18  2  0  0  0  0
 16 17  1  0  0  0  0
 16 21  2  0  0  0  0
 17 20  2  0  0  0  0
 17 22  1  0  0  0  0
 18 19  1  0  0  0  0
 18 38  1  0  0  0  0
 21 39  1  0  0  0  0
 22 23  2  0  0  0  0
 22 41  1  0  0  0  0
 23 24  1  0  0  0  0
 23 42  1  0  0  0  0
 24 43  1  0  0  0  0
M  END
> <PUBCHEM_COMPOUND_CID>
49830294

> <PUBCHEM_CONFORMER_RMSD>
0.8

> <PUBCHEM_CONFORMER_DIVERSEORDER>
1
44
105
58
139
34
51
119
136
145
61
97
35
91
25
65
50
90
153
37
8
80
43
126
155
45
150
158
23
79
144
74
87
10
100
39
142
77
41
85
72
171
28
29
36
116
81
162
160
12
103
157
56
60
47
98
148
89
71
135
30
21
101
82
42
120
141
14
67
131
3
161
40
68
117
16
123
118
170
31
115
143
147
99
93
57
108
48
168
127
106
166
38
107
129
15
138
55
111
46
159
2
20
104
165
121
137
63
122
53
66
9
154
95
173
167
149
96
125
130
132
146
83
134
33
169
59
102
110
163
32
11
109
84
75
128
5
152
86
73
94
7
22
156
114
133
6
88
17
164
69
24
172
78
4
113
13
92
64
124
19
52
49
140
18
151
62
27
70
76
112
26
54

> <PUBCHEM_MMFF94_PARTIAL_CHARGES>
28
1 -0.18
14 0.72
15 0.36
16 -0.05
18 -0.15
19 0.49
2 -0.87
20 0.11
21 -0.3
22 -0.15
23 -0.15
24 0.16
3 -0.99
35 0.4
36 0.36
37 0.36
38 0.15
39 0.15
4 -0.62
40 0.27
41 0.15
42 0.15
43 0.15
5 -0.62
6 0.03
7 -0.57
8 0.37
9 0.27

> <PUBCHEM_EFFECTIVE_ROTOR_COUNT>
4.2

> <PUBCHEM_PHARMACOPHORE_FEATURES>
12
1 2 donor
1 3 cation
1 3 donor
1 5 acceptor
1 6 cation
1 6 donor
1 7 acceptor
4 2 4 5 14 cation
5 6 16 17 20 21 rings
6 4 5 14 15 18 19 rings
6 7 17 20 22 23 24 rings
6 8 9 10 11 12 13 rings

> <PUBCHEM_HEAVY_ATOM_COUNT>
24

> <PUBCHEM_ATOM_DEF_STEREO_COUNT>
0

> <PUBCHEM_ATOM_UDEF_STEREO_COUNT>
2

> <PUBCHEM_BOND_DEF_STEREO_COUNT>
0

> <PUBCHEM_BOND_UDEF_STEREO_COUNT>
0

> <PUBCHEM_ISOTOPIC_ATOM_COUNT>
0

> <PUBCHEM_COMPONENT_COUNT>
1

> <PUBCHEM_CACTVS_TAUTO_COUNT>
16

> <PUBCHEM_CONFORMER_ID>
02F8599600000001

> <PUBCHEM_MMFF94_ENERGY>
44.6076

> <PUBCHEM_FEATURE_SELFOVERLAP>
61.009

> <PUBCHEM_SHAPE_FINGERPRINT>
107951 10 17478059250177973364
1100329 8 18337948987986768513
11488393 25 18047203113676597392
11578080 2 17097178784478235740
12363563 72 18412266129357392526
12553582 1 18337398136322366291
12623949 98 17905343071400009579
12707595 3 18409451422439810163
12788726 201 18119523237147108929
13140716 1 18410570678111399993
13533116 47 18125442171255870451
13540713 4 17898276446112159071
13544653 18 17775563109403832282
138480 1 14952083924057574504
14251757 5 18263086509119719469
14363568 33 18049180048130162578
14790565 3 17689713061182694721
14863182 85 16889494477191606349
14866123 147 18195805159792203569
14932701 244 12542414569004371291
15352361 1 18409442600619175866
15475509 8 18200036110816947157
17357779 13 18201715111662963166
1813 80 18272379667301997444
20403669 9 18410572907368478139
20600515 1 18339633456336539512
20645477 70 18122898996106739215
20693207 138 18114170991084842023
21120745 212 18199207143142505728
21133410 32 16083373044906382746
21279426 13 18116133620084649495
221490 88 18190175865798975689
22440779 20 16768217984108264886
23557571 272 18127686037890380816
23559900 14 18263628727682740817
238078 22 18335707109140633728
314173 41 18409448111083023185
3178227 256 18191314776291626681
329604 57 18334863844210361518
4280585 95 18261383426281077432
5486654 36 18335148596236427105
574716 61 15936700331948012358
6669772 16 17621048981325295140
6823239 73 18336539512378131546
81228 2 18126565617708018256
9709674 26 18191296285871016763

> <PUBCHEM_SHAPE_MULTIPOLES>
465.89
9.58
4.73
1.41
3.23
6.52
-0.56
-10.24
-1.55
-1.12
0.83
1.27
-0.92
1.69

> <PUBCHEM_SHAPE_SELFOVERLAP>
1012.223

> <PUBCHEM_SHAPE_VOLUME>
254

> <PUBCHEM_COORDINATE_TYPE>
2
5
10

$$$$
49830335
  -OEChem-05102415033D

 49 52  0     0  0  0  0  0  0999 V2000
   -3.0135    4.8923   -0.7716 Cl  0  0  0  0  0  0  0  0  0  0  0  0
    5.9420   -1.3049   -0.6843 S   0  0  0  0  0  0  0  0  0  0  0  0
    5.6708   -0.9258   -2.0572 O   0  0  0  0  0  0  0  0  0  0  0  0
    6.1283   -2.6969   -0.3221 O   0  0  0  0  0  0  0  0  0  0  0  0
    4.7634   -0.6448    0.3479 N   0  0  0  0  0  0  0  0  0  0  0  0
    0.7640    1.8849    0.7500 N   0  0  0  0  0  0  0  0  0  0  0  0
   -1.3255    0.9178    0.2745 N   0  0  0  0  0  0  0  0  0  0  0  0
   -3.1428    2.3242   -0.4514 N   0  0  0  0  0  0  0  0  0  0  0  0
   -5.2975   -1.1835   -0.5871 N   0  0  0  0  0  0  0  0  0  0  0  0
   -4.5375   -3.4058   -0.0510 N   0  0  0  0  0  0  0  0  0  0  0  0
    4.1351    0.6513   -0.0200 C   0  0  0  0  0  0  0  0  0  0  0  0
    1.3653    0.6137    1.1026 C   0  0  0  0  0  0  0  0  0  0  0  0
    3.7774    1.4344    1.2431 C   0  0  0  0  0  0  0  0  0  0  0  0
    2.9221    0.4003   -0.9155 C   0  0  0  0  0  0  0  0  0  0  0  0
    2.5839    0.8440    1.9979 C   0  0  0  0  0  0  0  0  0  0  0  0
    1.7205   -0.1744   -0.1602 C   0  0  0  0  0  0  0  0  0  0  0  0
   -0.5506    2.0199    0.3471 C   0  0  0  0  0  0  0  0  0  0  0  0
    7.3869   -0.4186   -0.1471 C   0  0  0  0  0  0  0  0  0  0  0  0
   -0.9938    3.2904    0.0408 C   0  0  0  0  0  0  0  0  0  0  0  0
   -2.5921    1.1393   -0.1256 C   0  0  0  0  0  0  0  0  0  0  0  0
   -2.3121    3.3831   -0.3567 C   0  0  0  0  0  0  0  0  0  0  0  0
   -3.4448   -0.0086   -0.2146 C   0  0  0  0  0  0  0  0  0  0  0  0
   -3.1683   -1.3743    0.0596 C   0  0  0  0  0  0  0  0  0  0  0  0
   -4.7621    0.0781   -0.6107 C   0  0  0  0  0  0  0  0  0  0  0  0
   -4.3435   -2.0798   -0.1825 C   0  0  0  0  0  0  0  0  0  0  0  0
   -2.0506   -2.1084    0.4885 C   0  0  0  0  0  0  0  0  0  0  0  0
   -2.1962   -3.4860    0.6412 C   0  0  0  0  0  0  0  0  0  0  0  0
   -3.4289   -4.0619    0.3644 C   0  0  0  0  0  0  0  0  0  0  0  0
    4.8705    1.2439   -0.5777 H   0  0  0  0  0  0  0  0  0  0  0  0
    0.6460    0.0314    1.6930 H   0  0  0  0  0  0  0  0  0  0  0  0
    3.5504    2.4710    0.9653 H   0  0  0  0  0  0  0  0  0  0  0  0
    4.6412    1.4798    1.9180 H   0  0  0  0  0  0  0  0  0  0  0  0
    3.1709   -0.2700   -1.7451 H   0  0  0  0  0  0  0  0  0  0  0  0
    2.6227    1.3533   -1.3705 H   0  0  0  0  0  0  0  0  0  0  0  0
    2.3233    1.5070    2.8323 H   0  0  0  0  0  0  0  0  0  0  0  0
    2.8820   -0.1134    2.4434 H   0  0  0  0  0  0  0  0  0  0  0  0
    1.9563   -1.2064    0.1307 H   0  0  0  0  0  0  0  0  0  0  0  0
    0.8674   -0.2394   -0.8451 H   0  0  0  0  0  0  0  0  0  0  0  0
    4.7996   -0.8737    1.3487 H   0  0  0  0  0  0  0  0  0  0  0  0
    1.3902    2.6482    0.5153 H   0  0  0  0  0  0  0  0  0  0  0  0
    7.5440   -0.6085    0.9164 H   0  0  0  0  0  0  0  0  0  0  0  0
    7.2487    0.6465   -0.3392 H   0  0  0  0  0  0  0  0  0  0  0  0
    8.2406   -0.7889   -0.7189 H   0  0  0  0  0  0  0  0  0  0  0  0
   -0.3528    4.1618    0.1073 H   0  0  0  0  0  0  0  0  0  0  0  0
   -5.3796    0.9150   -0.9087 H   0  0  0  0  0  0  0  0  0  0  0  0
   -6.2498   -1.4178   -0.8309 H   0  0  0  0  0  0  0  0  0  0  0  0
   -1.0949   -1.6424    0.7002 H   0  0  0  0  0  0  0  0  0  0  0  0
   -1.3616   -4.0958    0.9702 H   0  0  0  0  0  0  0  0  0  0  0  0
   -3.5602   -5.1348    0.4782 H   0  0  0  0  0  0  0  0  0  0  0  0
  1 21  1  0  0  0  0
  2  3  2  0  0  0  0
  2  4  2  0  0  0  0
  2  5  1  0  0  0  0
  2 18  1  0  0  0  0
  5 11  1  0  0  0  0
  5 39  1  0  0  0  0
  6 12  1  0  0  0  0
  6 17  1  0  0  0  0
  6 40  1  0  0  0  0
  7 17  1  0  0  0  0
  7 20  2  0  0  0  0
  8 20  1  0  0  0  0
  8 21  2  0  0  0  0
  9 24  1  0  0  0  0
  9 25  1  0  0  0  0
  9 46  1  0  0  0  0
 10 25  1  0  0  0  0
 10 28  2  0  0  0  0
 11 13  1  0  0  0  0
 11 14  1  0  0  0  0
 11 29  1  0  0  0  0
 12 15  1  0  0  0  0
 12 16  1  0  0  0  0
 12 30  1  0  0  0  0
 13 15  1  0  0  0  0
 13 31  1  0  0  0  0
 13 32  1  0  0  0  0
 14 16  1  0  0  0  0
 14 33  1  0  0  0  0
 14 34  1  0  0  0  0
 15 35  1  0  0  0  0
 15 36  1  0  0  0  0
 16 37  1  0  0  0  0
 16 38  1  0  0  0  0
 17 19  2  0  0  0  0
 18 41  1  0  0  0  0
 18 42  1  0  0  0  0
 18 43  1  0  0  0  0
 19 21  1  0  0  0  0
 19 44  1  0  0  0  0
 20 22  1  0  0  0  0
 22 23  1  0  0  0  0
 22 24  2  0  0  0  0
 23 25  2  0  0  0  0
 23 26  1  0  0  0  0
 24 45  1  0  0  0  0
 26 27  2  0  0  0  0
 26 47  1  0  0  0  0
 27 28  1  0  0  0  0
 27 48  1  0  0  0  0
 28 49  1  0  0  0  0
M  END
> <PUBCHEM_COMPOUND_CID>
49830335

> <PUBCHEM_CONFORMER_RMSD>
1

> <PUBCHEM_CONFORMER_DIVERSEORDER>
1
111
51
21
70
6
57
43
87
84
64
110
26
62
24
126
132
17
11
40
103
83
59
123
114
47
112
116
38
128
8
115
75
35
18
96
106
98
7
27
125
95
131
60
33
99
73
122
56
31
36
124
76
20
91
78
44
54
49
32
129
89
58
53
4
34
130
22
15
71
63
46
127
37
9
107
90
97
105
45
118
19
80
77
102
100
55
121
67
48
82
104
109
101
92
72
86
29
41
74
93
113
5
14
94
39
16
120
68
66
13
117
50
25
108
65
69
61
30
28
85
52
3
42
81
88
79
10
23
2
12
119

> <PUBCHEM_MMFF94_PARTIAL_CHARGES>
31
1 -0.18
10 -0.57
11 0.36
12 0.37
17 0.41
18 0.11
19 -0.15
2 1.33
20 0.67
21 0.49
22 -0.05
24 -0.3
25 0.11
26 -0.15
27 -0.15
28 0.16
3 -0.65
39 0.42
4 -0.65
40 0.4
44 0.15
45 0.15
46 0.27
47 0.15
48 0.15
49 0.15
5 -0.91
6 -0.87
7 -0.62
8 -0.62
9 0.03

> <PUBCHEM_EFFECTIVE_ROTOR_COUNT>
6.2

> <PUBCHEM_PHARMACOPHORE_FEATURES>
14
1 10 acceptor
1 3 acceptor
1 4 acceptor
1 5 donor
1 6 cation
1 6 donor
1 8 acceptor
1 9 cation
1 9 donor
3 7 8 20 cation
5 9 22 23 24 25 rings
6 10 23 25 26 27 28 rings
6 11 12 13 14 15 16 rings
6 7 8 17 19 20 21 rings

> <PUBCHEM_HEAVY_ATOM_COUNT>
28

> <PUBCHEM_ATOM_DEF_STEREO_COUNT>
0

> <PUBCHEM_ATOM_UDEF_STEREO_COUNT>
0

> <PUBCHEM_BOND_DEF_STEREO_COUNT>
0

> <PUBCHEM_BOND_UDEF_STEREO_COUNT>
0

> <PUBCHEM_ISOTOPIC_ATOM_COUNT>
0

> <PUBCHEM_COMPONENT_COUNT>
1

> <PUBCHEM_CACTVS_TAUTO_COUNT>
9

> <PUBCHEM_CONFORMER_ID>
02F859BF00000001

> <PUBCHEM_MMFF94_ENERGY>
55.2396

> <PUBCHEM_FEATURE_SELFOVERLAP>
71.177

> <PUBCHEM_SHAPE_FINGERPRINT>
107951 10 18124874560703906933
10940486 97 18260836947243056404
11056379 131 18409162178152474321
11186622 123 18334850607074325962
117089 54 18193565690244945819
11796584 16 18196371417134011034
12553582 1 18263070167391254249
12788726 201 18187917379227911953
13402501 40 18272934929206411006
1361 4 18412546475702456838
13782708 43 17918274276918412950
138480 1 16249117396184783137
14251751 18 18413393133793549278
14251757 5 18334294283932960891
14444916 359 18124887763686562457
14461889 52 18272359881553632306
14866123 147 18341337713114380105
14910302 57 18340759407919620000
15230672 131 17975977562373434474
15250474 111 18188199893703057978
15361156 5 18202559600902112501
15439362 3 17110154924694900397
15927050 60 17981317890649943741
17627616 140 18047474426560699866
17909252 39 18123193660812484856
19958102 18 18262512568444961478
20505436 4 17533502218355862617
20771845 38 17060052584550077943
21033650 10 17967248684950761440
21307412 95 18340479050251955423
21623969 137 17346882243834585326
22393880 68 18338792304725050048
23379529 103 18339363092402897322
23559900 14 18411974788956880096
3004659 81 18041554840528693998
4058900 60 17620476805175492513
4280585 95 18335417997754431364
4435113 14 17845670135824041806
508706 21 18341335500336135438
57307002 85 18201452354370279790
58902169 19 17604161324825428502
59755656 215 18410289190281734534
59755656 520 18056203470974868929
613672 6 18121758785184353963
6823239 73 18342449379061682736
7970288 3 18267303325244049023
9709674 26 17542216205342334203
9862886 166 18412546509713502694

> <PUBCHEM_SHAPE_MULTIPOLES>
540.32
14.63
5.26
1.15
23.82
1.44
0.11
-10.09
-4.17
-8.81
-0.32
1.39
0.15
1.99

> <PUBCHEM_SHAPE_SELFOVERLAP>
1148.298

> <PUBCHEM_SHAPE_VOLUME>
305.4

> <PUBCHEM_COORDINATE_TYPE>
2
5
10

$$$$
49830304
  -OEChem-05102415033D

 50 53  0     0  0  0  0  0  0999 V2000
    2.9598   -5.0030    0.4340 Cl  0  0  0  0  0  0  0  0  0  0  0  0
   -6.2091    0.2642    1.5775 O   0  0  0  0  0  0  0  0  0  0  0  0
   -0.6617   -1.9354   -0.8175 N   0  0  0  0  0  0  0  0  0  0  0  0
   -4.7558    0.3864   -0.2290 N   0  0  0  0  0  0  0  0  0  0  0  0
    1.3199   -0.9179   -0.1677 N   0  0  0  0  0  0  0  0  0  0  0  0
   -6.2108    2.1172    0.1810 N   0  0  0  0  0  0  0  0  0  0  0  0
    1.1008   -3.3173   -0.2118 N   0  0  0  0  0  0  0  0  0  0  0  0
    4.8275    1.4909    1.4121 N   0  0  0  0  0  0  0  0  0  0  0  0
    4.4111    3.5191    0.1806 N   0  0  0  0  0  0  0  0  0  0  0  0
   -1.3069   -0.6574   -1.0469 C   0  0  0  0  0  0  0  0  0  0  0  0
   -4.1085   -0.8903   -0.0293 C   0  0  0  0  0  0  0  0  0  0  0  0
   -2.4899   -0.8242   -2.0038 C   0  0  0  0  0  0  0  0  0  0  0  0
   -1.7286   -0.0402    0.2882 C   0  0  0  0  0  0  0  0  0  0  0  0
   -3.6948   -1.5186   -1.3626 C   0  0  0  0  0  0  0  0  0  0  0  0
   -2.9205   -0.7581    0.9261 C   0  0  0  0  0  0  0  0  0  0  0  0
    0.6428   -2.0623   -0.3810 C   0  0  0  0  0  0  0  0  0  0  0  0
   -5.7659    0.8660    0.6002 C   0  0  0  0  0  0  0  0  0  0  0  0
    2.5894   -1.0787    0.2599 C   0  0  0  0  0  0  0  0  0  0  0  0
    3.3281    0.1292    0.4911 C   0  0  0  0  0  0  0  0  0  0  0  0
    2.3770   -3.4046    0.2174 C   0  0  0  0  0  0  0  0  0  0  0  0
    3.1768   -2.3092    0.4720 C   0  0  0  0  0  0  0  0  0  0  0  0
    3.2174    1.4001   -0.1328 C   0  0  0  0  0  0  0  0  0  0  0  0
   -7.2548    2.8452    0.8629 C   0  0  0  0  0  0  0  0  0  0  0  0
    4.3269    0.2151    1.4368 C   0  0  0  0  0  0  0  0  0  0  0  0
    4.1657    2.2259    0.4640 C   0  0  0  0  0  0  0  0  0  0  0  0
    2.4189    1.9586   -1.1442 C   0  0  0  0  0  0  0  0  0  0  0  0
    2.6314    3.2951   -1.4775 C   0  0  0  0  0  0  0  0  0  0  0  0
    3.6138    4.0043   -0.7995 C   0  0  0  0  0  0  0  0  0  0  0  0
   -0.5978    0.0181   -1.5425 H   0  0  0  0  0  0  0  0  0  0  0  0
   -4.8464   -1.5527    0.4406 H   0  0  0  0  0  0  0  0  0  0  0  0
   -2.8000    0.1673   -2.3572 H   0  0  0  0  0  0  0  0  0  0  0  0
   -2.1826   -1.3873   -2.8939 H   0  0  0  0  0  0  0  0  0  0  0  0
   -2.0026    1.0088    0.1165 H   0  0  0  0  0  0  0  0  0  0  0  0
   -0.8998   -0.0232    1.0048 H   0  0  0  0  0  0  0  0  0  0  0  0
   -4.5359   -1.5030   -2.0666 H   0  0  0  0  0  0  0  0  0  0  0  0
   -3.4495   -2.5747   -1.1949 H   0  0  0  0  0  0  0  0  0  0  0  0
   -2.6041   -1.7602    1.2422 H   0  0  0  0  0  0  0  0  0  0  0  0
   -3.2173   -0.2233    1.8365 H   0  0  0  0  0  0  0  0  0  0  0  0
   -1.1890   -2.7918   -0.9407 H   0  0  0  0  0  0  0  0  0  0  0  0
   -4.4127    0.9968   -0.9641 H   0  0  0  0  0  0  0  0  0  0  0  0
   -5.8168    2.5183   -0.6643 H   0  0  0  0  0  0  0  0  0  0  0  0
    4.2013   -2.4332    0.8024 H   0  0  0  0  0  0  0  0  0  0  0  0
   -7.2723    2.5899    1.9253 H   0  0  0  0  0  0  0  0  0  0  0  0
   -7.0699    3.9146    0.7375 H   0  0  0  0  0  0  0  0  0  0  0  0
   -8.2120    2.5814    0.4062 H   0  0  0  0  0  0  0  0  0  0  0  0
    4.7315   -0.5018    2.1388 H   0  0  0  0  0  0  0  0  0  0  0  0
    5.5696    1.8380    2.0037 H   0  0  0  0  0  0  0  0  0  0  0  0
    1.6604    1.3814   -1.6623 H   0  0  0  0  0  0  0  0  0  0  0  0
    2.0404    3.7708   -2.2528 H   0  0  0  0  0  0  0  0  0  0  0  0
    3.7929    5.0474   -1.0469 H   0  0  0  0  0  0  0  0  0  0  0  0
  1 20  1  0  0  0  0
  2 17  2  0  0  0  0
  3 10  1  0  0  0  0
  3 16  1  0  0  0  0
  3 39  1  0  0  0  0
  4 11  1  0  0  0  0
  4 17  1  0  0  0  0
  4 40  1  0  0  0  0
  5 16  2  0  0  0  0
  5 18  1  0  0  0  0
  6 17  1  0  0  0  0
  6 23  1  0  0  0  0
  6 41  1  0  0  0  0
  7 16  1  0  0  0  0
  7 20  2  0  0  0  0
  8 24  1  0  0  0  0
  8 25  1  0  0  0  0
  8 47  1  0  0  0  0
  9 25  1  0  0  0  0
  9 28  2  0  0  0  0
 10 12  1  0  0  0  0
 10 13  1  0  0  0  0
 10 29  1  0  0  0  0
 11 14  1  0  0  0  0
 11 15  1  0  0  0  0
 11 30  1  0  0  0  0
 12 14  1  0  0  0  0
 12 31  1  0  0  0  0
 12 32  1  0  0  0  0
 13 15  1  0  0  0  0
 13 33  1  0  0  0  0
 13 34  1  0  0  0  0
 14 35  1  0  0  0  0
 14 36  1  0  0  0  0
 15 37  1  0  0  0  0
 15 38  1  0  0  0  0
 18 19  1  0  0  0  0
 18 21  2  0  0  0  0
 19 22  1  0  0  0  0
 19 24  2  0  0  0  0
 20 21  1  0  0  0  0
 21 42  1  0  0  0  0
 22 25  2  0  0  0  0
 22 26  1  0  0  0  0
 23 43  1  0  0  0  0
 23 44  1  0  0  0  0
 23 45  1  0  0  0  0
 24 46  1  0  0  0  0
 26 27  2  0  0  0  0
 26 48  1  0  0  0  0
 27 28  1  0  0  0  0
 27 49  1  0  0  0  0
 28 50  1  0  0  0  0
M  END
> <PUBCHEM_COMPOUND_CID>
49830304

> <PUBCHEM_CONFORMER_RMSD>
0.8

> <PUBCHEM_CONFORMER_DIVERSEORDER>
1
53
292
192
105
259
290
217
43
322
58
67
116
339
194
279
288
120
230
186
291
38
273
146
263
297
102
121
48
144
182
286
148
280
119
287
196
13
360
52
277
229
311
201
374
221
39
278
172
208
47
12
375
171
168
154
103
368
310
166
214
124
210
41
365
193
315
348
249
244
84
180
29
283
381
354
236
76
98
379
165
352
123
65
307
78
132
218
281
227
358
344
317
138
131
224
260
170
319
289
341
309
197
333
24
181
321
362
37
106
167
198
26
367
372
9
276
164
117
203
382
268
359
130
323
28
245
96
56
318
233
219
68
247
175
350
60
206
129
293
228
135
314
308
31
320
22
226
316
189
271
156
118
15
93
136
246
187
35
241
161
272
61
251
174
176
213
14
100
363
95
18
66
240
326
64
159
49
303
90
134
74
85
149
262
140
285
275
373
353
200
376
301
222
139
97
153
190
212
44
89
223
330
79
46
294
143
274
282
51
264
20
45
75
267
91
284
151
216
298
10
377
183
332
155
254
261
112
304
257
126
204
232
231
19
199
169
202
351
270
115
92
252
380
86
50
211
150
334
137
295
250
331
40
207
195
73
237
42
296
36
30
177
324
215
258
269
128
357
17
32
34
162
220
336
125
356
88
266
209
69
110
142
205
141
369
82
305
152
21
299
5
366
107
345
163
191
306
179
328
255
158
225
104
6
25
72
109
77
188
178
370
114
87
127
256
27
59
33
157
145
122
185
361
243
71
133
242
94
248
234
342
147
2
253
346
11
113
8
343
101
81
335
378
349
184
16
111
62
83
300
54
325
364
99
3
327
239
313
23
355
7
55
371
173
338
160
302
63
329
70
312
57
265
235
238
108
347
80
340
337
4

> <PUBCHEM_MMFF94_PARTIAL_CHARGES>
32
1 -0.18
10 0.37
11 0.3
16 0.72
17 0.69
18 0.36
19 -0.05
2 -0.57
20 0.49
21 -0.15
23 0.3
24 -0.3
25 0.11
26 -0.15
27 -0.15
28 0.16
3 -0.87
39 0.4
4 -0.73
40 0.37
41 0.37
42 0.15
46 0.15
47 0.27
48 0.15
49 0.15
5 -0.62
50 0.15
6 -0.73
7 -0.62
8 0.03
9 -0.57

> <PUBCHEM_EFFECTIVE_ROTOR_COUNT>
7.2

> <PUBCHEM_PHARMACOPHORE_FEATURES>
13
1 2 acceptor
1 3 donor
1 4 donor
1 6 donor
1 7 acceptor
1 8 cation
1 8 donor
1 9 acceptor
4 3 5 7 16 cation
5 8 19 22 24 25 rings
6 10 11 12 13 14 15 rings
6 5 7 16 18 20 21 rings
6 9 22 25 26 27 28 rings

> <PUBCHEM_HEAVY_ATOM_COUNT>
28

> <PUBCHEM_ATOM_DEF_STEREO_COUNT>
0

> <PUBCHEM_ATOM_UDEF_STEREO_COUNT>
0

> <PUBCHEM_BOND_DEF_STEREO_COUNT>
0

> <PUBCHEM_BOND_UDEF_STEREO_COUNT>
0

> <PUBCHEM_ISOTOPIC_ATOM_COUNT>
0

> <PUBCHEM_COMPONENT_COUNT>
1

> <PUBCHEM_CACTVS_TAUTO_COUNT>
48

> <PUBCHEM_CONFORMER_ID>
02F859A000000001

> <PUBCHEM_MMFF94_ENERGY>
53.0006

> <PUBCHEM_FEATURE_SELFOVERLAP>
66.136

> <PUBCHEM_SHAPE_FINGERPRINT>
10483366 6 18263663839799567380
10917259 69 18120662585779464076
10937287 8 18194120956885853038
11049842 53 16845297085767324615
12422481 6 18040428885204606205
12633257 1 17240759639782828249
13785724 45 17980485563783146742
13878862 14 18195227954821273293
13965767 371 18042393802772187260
14114211 80 18044950210035147124
14251764 75 18118973734773825148
14347332 77 8935004759522675063
14790565 3 18195247938797958757
14918310 93 17344073953641121622
15342168 16 18339079397033615775
15348495 7 18188219702387346939
15439362 3 18341056324158295628
15475509 8 18412834586540017076
15950262 2 16197874034180912832
16992787 43 18338524045996290182
17810953 82 18410858763006017916
19301679 30 17400919696249348146
19377110 9 18339926043211250663
1979834 28 18187089480883548157
20511986 3 17845923100301211489
20715895 44 18411417289454302513
20739085 24 18335691729443171050
21033648 144 17823684463932556412
21049683 271 18191314788954846134
21315764 268 18191024492104389509
22122407 14 18269288880688650881
23522609 53 11748365732012192583
23559900 14 18336268933786815099
245318 6 18262528116221733429
24771293 8 18199445767889543266
373842 8 18265896857231779725
397830 11 18187942681502374691
4409770 3 16824742558306010366
474 4 18337662131114933142
57724786 102 18412260597845534903
6034566 193 18047481302702516181
6058803 2 18200854254368273359
633830 44 18270963556671560806
6609424 69 18192992604210307180
68570916 9 18342176636550192651
7970288 3 8862128037116254800
960060 61 11743851282262872264

> <PUBCHEM_SHAPE_MULTIPOLES>
537.36
14.39
5.47
1.37
27.44
1.27
-0.24
-12.49
5.77
-8
-0.47
0.49
-0.31
-2.24

> <PUBCHEM_SHAPE_SELFOVERLAP>
1155.512

> <PUBCHEM_SHAPE_VOLUME>
296.4

> <PUBCHEM_COORDINATE_TYPE>
2
5
10

$$$$
49830279
  -OEChem-05102415033D

 41 44  0     0  0  0  0  0  0999 V2000
   -0.9235    4.9275    0.3787 Cl  0  0  0  0  0  0  0  0  0  0  0  0
   -2.5940    0.3131    0.5143 N   0  0  0  0  0  0  0  0  0  0  0  0
   -0.3170    0.5339    0.1192 N   0  0  0  0  0  0  0  0  0  0  0  0
   -1.7245    2.4641    0.4368 N   0  0  0  0  0  0  0  0  0  0  0  0
    4.0609    0.4948   -1.0784 N   0  0  0  0  0  0  0  0  0  0  0  0
    4.6128   -1.6893   -0.2247 N   0  0  0  0  0  0  0  0  0  0  0  0
   -2.5236   -1.1346    0.4487 C   0  0  0  0  0  0  0  0  0  0  0  0
   -3.7180   -1.7528    1.1823 C   0  0  0  0  0  0  0  0  0  0  0  0
   -2.4615   -1.5929   -1.0119 C   0  0  0  0  0  0  0  0  0  0  0  0
   -5.0377   -1.5568    0.4355 C   0  0  0  0  0  0  0  0  0  0  0  0
   -3.7857   -1.3965   -1.7504 C   0  0  0  0  0  0  0  0  0  0  0  0
   -4.9476   -2.0467   -1.0063 C   0  0  0  0  0  0  0  0  0  0  0  0
   -1.4975    1.1395    0.3504 C   0  0  0  0  0  0  0  0  0  0  0  0
    0.7305    1.3696   -0.0379 C   0  0  0  0  0  0  0  0  0  0  0  0
    1.9976    0.7434   -0.2835 C   0  0  0  0  0  0  0  0  0  0  0  0
    2.4864   -0.5223    0.1357 C   0  0  0  0  0  0  0  0  0  0  0  0
    0.6308    2.7445    0.0276 C   0  0  0  0  0  0  0  0  0  0  0  0
    3.7747   -0.6464   -0.3762 C   0  0  0  0  0  0  0  0  0  0  0  0
   -0.6339    3.2407    0.2699 C   0  0  0  0  0  0  0  0  0  0  0  0
    2.9880    1.3465   -1.0282 C   0  0  0  0  0  0  0  0  0  0  0  0
    1.9876   -1.5919    0.8969 C   0  0  0  0  0  0  0  0  0  0  0  0
    2.8144   -2.6979    1.0853 C   0  0  0  0  0  0  0  0  0  0  0  0
    4.0809   -2.6894    0.5162 C   0  0  0  0  0  0  0  0  0  0  0  0
   -1.6209   -1.4776    0.9702 H   0  0  0  0  0  0  0  0  0  0  0  0
   -3.8064   -1.3308    2.1908 H   0  0  0  0  0  0  0  0  0  0  0  0
   -3.5411   -2.8292    1.3040 H   0  0  0  0  0  0  0  0  0  0  0  0
   -2.2086   -2.6611   -1.0318 H   0  0  0  0  0  0  0  0  0  0  0  0
   -1.6654   -1.0780   -1.5613 H   0  0  0  0  0  0  0  0  0  0  0  0
   -5.8343   -2.1004    0.9563 H   0  0  0  0  0  0  0  0  0  0  0  0
   -5.3234   -0.4985    0.4458 H   0  0  0  0  0  0  0  0  0  0  0  0
   -3.9843   -0.3253   -1.8762 H   0  0  0  0  0  0  0  0  0  0  0  0
   -3.7101   -1.8243   -2.7566 H   0  0  0  0  0  0  0  0  0  0  0  0
   -4.8209   -3.1363   -1.0136 H   0  0  0  0  0  0  0  0  0  0  0  0
   -5.8867   -1.8316   -1.5283 H   0  0  0  0  0  0  0  0  0  0  0  0
   -3.4897    0.7664    0.6509 H   0  0  0  0  0  0  0  0  0  0  0  0
    1.4776    3.4109   -0.0857 H   0  0  0  0  0  0  0  0  0  0  0  0
    3.0391    2.2975   -1.5414 H   0  0  0  0  0  0  0  0  0  0  0  0
    4.9295    0.6786   -1.5609 H   0  0  0  0  0  0  0  0  0  0  0  0
    0.9953   -1.5722    1.3351 H   0  0  0  0  0  0  0  0  0  0  0  0
    2.4742   -3.5482    1.6665 H   0  0  0  0  0  0  0  0  0  0  0  0
    4.7389   -3.5435    0.6533 H   0  0  0  0  0  0  0  0  0  0  0  0
  1 19  1  0  0  0  0
  2  7  1  0  0  0  0
  2 13  1  0  0  0  0
  2 35  1  0  0  0  0
  3 13  2  0  0  0  0
  3 14  1  0  0  0  0
  4 13  1  0  0  0  0
  4 19  2  0  0  0  0
  5 18  1  0  0  0  0
  5 20  1  0  0  0  0
  5 38  1  0  0  0  0
  6 18  1  0  0  0  0
  6 23  2  0  0  0  0
  7  8  1  0  0  0  0
  7  9  1  0  0  0  0
  7 24  1  0  0  0  0
  8 10  1  0  0  0  0
  8 25  1  0  0  0  0
  8 26  1  0  0  0  0
  9 11  1  0  0  0  0
  9 27  1  0  0  0  0
  9 28  1  0  0  0  0
 10 12  1  0  0  0  0
 10 29  1  0  0  0  0
 10 30  1  0  0  0  0
 11 12  1  0  0  0  0
 11 31  1  0  0  0  0
 11 32  1  0  0  0  0
 12 33  1  0  0  0  0
 12 34  1  0  0  0  0
 14 15  1  0  0  0  0
 14 17  2  0  0  0  0
 15 16  1  0  0  0  0
 15 20  2  0  0  0  0
 16 18  2  0  0  0  0
 16 21  1  0  0  0  0
 17 19  1  0  0  0  0
 17 36  1  0  0  0  0
 20 37  1  0  0  0  0
 21 22  2  0  0  0  0
 21 39  1  0  0  0  0
 22 23  1  0  0  0  0
 22 40  1  0  0  0  0
 23 41  1  0  0  0  0
M  END
> <PUBCHEM_COMPOUND_CID>
49830279

> <PUBCHEM_CONFORMER_RMSD>
0.8

> <PUBCHEM_CONFORMER_DIVERSEORDER>
1
9
16
15
40
20
38
8
17
39
45
11
24
30
35
41
28
14
18
13
50
5
32
26
29
27
22
34
10
12
44
37
47
43
36
31
25
42
7
3
49
23
4
52
51
21
6
19
46
2
48
33

> <PUBCHEM_MMFF94_PARTIAL_CHARGES>
24
1 -0.18
13 0.72
14 0.36
15 -0.05
17 -0.15
18 0.11
19 0.49
2 -0.87
20 -0.3
21 -0.15
22 -0.15
23 0.16
3 -0.62
35 0.4
36 0.15
37 0.15
38 0.27
39 0.15
4 -0.62
40 0.15
41 0.15
5 0.03
6 -0.57
7 0.37

> <PUBCHEM_EFFECTIVE_ROTOR_COUNT>
4.2

> <PUBCHEM_PHARMACOPHORE_FEATURES>
10
1 2 donor
1 4 acceptor
1 5 cation
1 5 donor
1 6 acceptor
4 2 3 4 13 cation
5 5 15 16 18 20 rings
6 3 4 13 14 17 19 rings
6 6 16 18 21 22 23 rings
6 7 8 9 10 11 12 rings

> <PUBCHEM_HEAVY_ATOM_COUNT>
23

> <PUBCHEM_ATOM_DEF_STEREO_COUNT>
0

> <PUBCHEM_ATOM_UDEF_STEREO_COUNT>
0

> <PUBCHEM_BOND_DEF_STEREO_COUNT>
0

> <PUBCHEM_BOND_UDEF_STEREO_COUNT>
0

> <PUBCHEM_ISOTOPIC_ATOM_COUNT>
0

> <PUBCHEM_COMPONENT_COUNT>
1

> <PUBCHEM_CACTVS_TAUTO_COUNT>
16

> <PUBCHEM_CONFORMER_ID>
02F8598700000001

> <PUBCHEM_MMFF94_ENERGY>
45.8038

> <PUBCHEM_FEATURE_SELFOVERLAP>
50.859

> <PUBCHEM_SHAPE_FINGERPRINT>
10616163 171 18266465291451632506
11578080 2 17917132953631394009
12107183 9 18271259287483172075
12553582 1 18340206387835888051
12788726 201 18193831553373283473
13004483 165 18341887481232894873
13140716 1 18339643330402711697
13533116 47 18050851319602465467
13540713 5 18043824091596174340
13631057 29 18411985733124101524
13757389 114 17762355617234468164
138480 1 15023586269176594353
13911987 19 17754758331030833260
13955234 65 17837214045350439441
14178342 30 18118953703704973314
14251757 17 17095505293616311311
14767858 380 18191041169398856684
14787075 74 18199753720970355216
14866123 147 17977945683728156059
15042514 8 18267873783174453913
15099037 8 18335422305580028056
15537594 2 18269284610926870183
17492 89 18265337214097058882
1813 80 18129954476074782389
19319366 153 18117843424462713742
20028762 73 17476917957546743469
20291156 8 18411419513925322355
20626108 58 17773866679185163279
20645477 70 18114742766890374163
21250096 35 18411416241482080655
21478907 32 18410293575791159001
21634736 98 18262245426233137318
221357 26 18261663857749631439
2255824 54 17981327008195470021
235170 7 16877938382092458063
23598288 3 18267313018842291572
23622692 118 18338232666101704070
23728640 28 17979633433707572497
2871803 45 18333734649641635518
3004659 81 18113051627796918410
3091708 16 8992254156052845329
314173 41 18267592488327653463
4017518 198 17045125399964189478
46194498 28 17024592411563087551
463206 1 18336547238919477083
59025328 239 17554283216344309605
59682541 52 18193251192271719983
7164475 11 18337673018872391548
7471813 234 18410001140057869966
7970288 3 18341611542290765911
79837 15 17693382135668501793

> <PUBCHEM_SHAPE_MULTIPOLES>
450.29
9.42
4.73
1.15
3.12
6.04
0.23
-10.2
1.56
0.22
-1.06
0.59
-0.53
-1.52

> <PUBCHEM_SHAPE_SELFOVERLAP>
979.798

> <PUBCHEM_SHAPE_VOLUME>
245.5

> <PUBCHEM_COORDINATE_TYPE>
2
5
10

$$$$
49830305
  -OEChem-05102415033D

 55 58  0     0  0  0  0  0  0999 V2000
    1.9786   -5.1491   -0.3706 Cl  0  0  0  0  0  0  0  0  0  0  0  0
   -5.2065    0.0557    0.0680 N   0  0  0  0  0  0  0  0  0  0  0  0
   -0.7448   -1.3245    1.0631 N   0  0  0  0  0  0  0  0  0  0  0  0
    1.3549   -0.7913    0.2293 N   0  0  0  0  0  0  0  0  0  0  0  0
    0.6050   -3.0777    0.3618 N   0  0  0  0  0  0  0  0  0  0  0  0
    5.1754    0.7364   -1.6884 N   0  0  0  0  0  0  0  0  0  0  0  0
    5.3373    2.8169   -0.4849 N   0  0  0  0  0  0  0  0  0  0  0  0
   -3.9089    0.5150    0.5626 C   0  0  0  0  0  0  0  0  0  0  0  0
   -1.0640    0.0683    1.3080 C   0  0  0  0  0  0  0  0  0  0  0  0
   -3.5389   -0.2530    1.8353 C   0  0  0  0  0  0  0  0  0  0  0  0
   -2.8330    0.3480   -0.5157 C   0  0  0  0  0  0  0  0  0  0  0  0
   -2.1675    0.1717    2.3638 C   0  0  0  0  0  0  0  0  0  0  0  0
   -1.4529    0.7622   -0.0006 C   0  0  0  0  0  0  0  0  0  0  0  0
   -5.8333    1.0750   -0.7593 C   0  0  0  0  0  0  0  0  0  0  0  0
   -7.2331    0.6599   -1.2436 C   0  0  0  0  0  0  0  0  0  0  0  0
    0.4567   -1.7495    0.5275 C   0  0  0  0  0  0  0  0  0  0  0  0
   -7.8711    1.7057   -2.1617 C   0  0  0  0  0  0  0  0  0  0  0  0
   -8.1435    0.4095   -0.0383 C   0  0  0  0  0  0  0  0  0  0  0  0
    2.5164   -1.2412   -0.2892 C   0  0  0  0  0  0  0  0  0  0  0  0
    3.4857   -0.2351   -0.6152 C   0  0  0  0  0  0  0  0  0  0  0  0
    1.7895   -3.4574   -0.1606 C   0  0  0  0  0  0  0  0  0  0  0  0
    2.7921   -2.5754   -0.5085 C   0  0  0  0  0  0  0  0  0  0  0  0
    3.7208    1.0325   -0.0199 C   0  0  0  0  0  0  0  0  0  0  0  0
    4.3953   -0.3896   -1.6390 C   0  0  0  0  0  0  0  0  0  0  0  0
    4.7800    1.6124   -0.7120 C   0  0  0  0  0  0  0  0  0  0  0  0
    3.1574    1.7692    1.0346 C   0  0  0  0  0  0  0  0  0  0  0  0
    3.6965    3.0239    1.3129 C   0  0  0  0  0  0  0  0  0  0  0  0
    4.7559    3.4816    0.5408 C   0  0  0  0  0  0  0  0  0  0  0  0
   -3.9704    1.5762    0.8417 H   0  0  0  0  0  0  0  0  0  0  0  0
   -0.1821    0.5700    1.7270 H   0  0  0  0  0  0  0  0  0  0  0  0
   -4.2912   -0.0730    2.6136 H   0  0  0  0  0  0  0  0  0  0  0  0
   -3.5430   -1.3334    1.6425 H   0  0  0  0  0  0  0  0  0  0  0  0
   -2.7912   -0.6964   -0.8519 H   0  0  0  0  0  0  0  0  0  0  0  0
   -3.0619    0.9534   -1.3997 H   0  0  0  0  0  0  0  0  0  0  0  0
   -1.9143   -0.4340    3.2425 H   0  0  0  0  0  0  0  0  0  0  0  0
   -2.2328    1.2125    2.7067 H   0  0  0  0  0  0  0  0  0  0  0  0
   -1.4631    1.8464    0.1729 H   0  0  0  0  0  0  0  0  0  0  0  0
   -0.7101    0.5853   -0.7866 H   0  0  0  0  0  0  0  0  0  0  0  0
   -5.1075   -0.8153   -0.4516 H   0  0  0  0  0  0  0  0  0  0  0  0
   -1.4377   -2.0389    1.2532 H   0  0  0  0  0  0  0  0  0  0  0  0
   -5.9239    2.0142   -0.1981 H   0  0  0  0  0  0  0  0  0  0  0  0
   -5.2207    1.2845   -1.6435 H   0  0  0  0  0  0  0  0  0  0  0  0
   -7.1490   -0.2758   -1.8118 H   0  0  0  0  0  0  0  0  0  0  0  0
   -7.2440    1.8784   -3.0425 H   0  0  0  0  0  0  0  0  0  0  0  0
   -8.8545    1.3725   -2.5098 H   0  0  0  0  0  0  0  0  0  0  0  0
   -7.9988    2.6624   -1.6440 H   0  0  0  0  0  0  0  0  0  0  0  0
   -8.2243    1.3014    0.5927 H   0  0  0  0  0  0  0  0  0  0  0  0
   -9.1531    0.1404   -0.3678 H   0  0  0  0  0  0  0  0  0  0  0  0
   -7.7777   -0.4153    0.5816 H   0  0  0  0  0  0  0  0  0  0  0  0
    3.7320   -2.9325   -0.9125 H   0  0  0  0  0  0  0  0  0  0  0  0
    4.5659   -1.1870   -2.3500 H   0  0  0  0  0  0  0  0  0  0  0  0
    5.9258    0.8978   -2.3457 H   0  0  0  0  0  0  0  0  0  0  0  0
    2.3322    1.3870    1.6261 H   0  0  0  0  0  0  0  0  0  0  0  0
    3.2959    3.6300    2.1184 H   0  0  0  0  0  0  0  0  0  0  0  0
    5.1887    4.4576    0.7443 H   0  0  0  0  0  0  0  0  0  0  0  0
  1 21  1  0  0  0  0
  2  8  1  0  0  0  0
  2 14  1  0  0  0  0
  2 39  1  0  0  0  0
  3  9  1  0  0  0  0
  3 16  1  0  0  0  0
  3 40  1  0  0  0  0
  4 16  2  0  0  0  0
  4 19  1  0  0  0  0
  5 16  1  0  0  0  0
  5 21  2  0  0  0  0
  6 24  1  0  0  0  0
  6 25  1  0  0  0  0
  6 52  1  0  0  0  0
  7 25  1  0  0  0  0
  7 28  2  0  0  0  0
  8 10  1  0  0  0  0
  8 11  1  0  0  0  0
  8 29  1  0  0  0  0
  9 12  1  0  0  0  0
  9 13  1  0  0  0  0
  9 30  1  0  0  0  0
 10 12  1  0  0  0  0
 10 31  1  0  0  0  0
 10 32  1  0  0  0  0
 11 13  1  0  0  0  0
 11 33  1  0  0  0  0
 11 34  1  0  0  0  0
 12 35  1  0  0  0  0
 12 36  1  0  0  0  0
 13 37  1  0  0  0  0
 13 38  1  0  0  0  0
 14 15  1  0  0  0  0
 14 41  1  0  0  0  0
 14 42  1  0  0  0  0
 15 17  1  0  0  0  0
 15 18  1  0  0  0  0
 15 43  1  0  0  0  0
 17 44  1  0  0  0  0
 17 45  1  0  0  0  0
 17 46  1  0  0  0  0
 18 47  1  0  0  0  0
 18 48  1  0  0  0  0
 18 49  1  0  0  0  0
 19 20  1  0  0  0  0
 19 22  2  0  0  0  0
 20 23  1  0  0  0  0
 20 24  2  0  0  0  0
 21 22  1  0  0  0  0
 22 50  1  0  0  0  0
 23 25  2  0  0  0  0
 23 26  1  0  0  0  0
 24 51  1  0  0  0  0
 26 27  2  0  0  0  0
 26 53  1  0  0  0  0
 27 28  1  0  0  0  0
 27 54  1  0  0  0  0
 28 55  1  0  0  0  0
M  END
> <PUBCHEM_COMPOUND_CID>
49830305

> <PUBCHEM_CONFORMER_RMSD>
1

> <PUBCHEM_CONFORMER_DIVERSEORDER>
2
130
137
163
146
12
24
126
145
158
77
76
57
142
150
123
118
59
82
36
91
102
89
86
49
37
101
61
39
154
100
134
103
58
110
113
83
147
78
42
108
74
99
148
10
135
72
13
25
28
112
52
105
140
136
84
106
95
23
19
125
151
115
48
139
29
64
152
133
92
51
15
124
96
55
131
20
68
116
129
63
50
143
104
121
160
149
54
46
26
155
87
114
153
127
97
11
132
70
120
22
40
56
141
35
144
88
79
161
128
75
17
27
14
53
45
119
90
81
34
62
159
85
67
1
9
18
38
80
122
94
6
157
138
66
71
41
5
44
65
43
33
156
117
21
60
109
111
107
7
162
73
8
32
4
30
47
98
16
69
31
3
93

> <PUBCHEM_MMFF94_PARTIAL_CHARGES>
28
1 -0.18
14 0.27
16 0.72
19 0.36
2 -0.9
20 -0.05
21 0.49
22 -0.15
24 -0.3
25 0.11
26 -0.15
27 -0.15
28 0.16
3 -0.87
39 0.36
4 -0.62
40 0.4
5 -0.62
50 0.15
51 0.15
52 0.27
53 0.15
54 0.15
55 0.15
6 0.03
7 -0.57
8 0.27
9 0.37

> <PUBCHEM_EFFECTIVE_ROTOR_COUNT>
7.2

> <PUBCHEM_PHARMACOPHORE_FEATURES>
13
1 2 cation
1 2 donor
1 3 donor
1 5 acceptor
1 6 cation
1 6 donor
1 7 acceptor
3 15 17 18 hydrophobe
4 3 4 5 16 cation
5 6 20 23 24 25 rings
6 4 5 16 19 21 22 rings
6 7 23 25 26 27 28 rings
6 8 9 10 11 12 13 rings

> <PUBCHEM_HEAVY_ATOM_COUNT>
28

> <PUBCHEM_ATOM_DEF_STEREO_COUNT>
0

> <PUBCHEM_ATOM_UDEF_STEREO_COUNT>
0

> <PUBCHEM_BOND_DEF_STEREO_COUNT>
0

> <PUBCHEM_BOND_UDEF_STEREO_COUNT>
0

> <PUBCHEM_ISOTOPIC_ATOM_COUNT>
0

> <PUBCHEM_COMPONENT_COUNT>
1

> <PUBCHEM_CACTVS_TAUTO_COUNT>
16

> <PUBCHEM_CONFORMER_ID>
02F859A100000002

> <PUBCHEM_MMFF94_ENERGY>
50.2193

> <PUBCHEM_FEATURE_SELFOVERLAP>
66.084

> <PUBCHEM_SHAPE_FINGERPRINT>
10692045 39 12901817282358364473
10693767 8 17701270127050370446
10883706 89 8285655259895146951
11211813 74 18335693903034726997
11408170 132 18200017436695400277
12440610 7 17894640257806537427
12661589 4 14332258936436167893
12717326 69 9005902437492690713
12730499 353 18410020939445674051
12769317 202 18341621416867841954
1361 2 18410571820878694661
13878862 14 18261944181041779358
14347424 109 8718824289048458999
14528608 73 18341895190741434685
14675020 138 18200294602990848656
14681490 219 18201720648214301737
14848178 96 18270691973310461640
14931854 50 18059871575120020828
15082195 135 18268703910284993129
15183329 4 17703790289642967385
15276724 80 18268431236213756149
15475509 35 13254793499784911647
15950262 2 16372441253144731836
16120349 189 18189902100832289692
20554085 129 16877936149352984017
20567600 254 18408888468702851560
21033648 29 17968097581231920572
21049683 118 18188475999743600946
21968339 14 18338796706808065434
23522609 53 17631748080246304025
23559900 14 17168438055638606890
23845131 108 18336547221892653714
44317340 157 18265892463611507269
59682541 52 18340476756797103429
6327066 14 18263928911679606132
6371009 1 18342459227664727240
70251023 43 18122624946812355475
9555976 147 13190346721842191621

> <PUBCHEM_SHAPE_MULTIPOLES>
548.21
17.84
4.41
1.68
39.48
4.63
0.17
-14.3
-9.65
-9.1
0.04
1.42
-0.57
2.04

> <PUBCHEM_SHAPE_SELFOVERLAP>
1166.348

> <PUBCHEM_SHAPE_VOLUME>
305.7

> <PUBCHEM_COORDINATE_TYPE>
2
5
10

$$$$
11645208
  -OEChem-05102415033D

 44 47  0     0  0  0  0  0  0999 V2000
   -2.0735   -1.9480    0.8537 N   0  0  0  0  0  0  0  0  0  0  0  0
    0.1438   -1.3325    0.3947 N   0  0  0  0  0  0  0  0  0  0  0  0
   -0.6829   -3.5162   -0.2015 N   0  0  0  0  0  0  0  0  0  0  0  0
    4.4202    0.1596    0.0931 N   0  0  0  0  0  0  0  0  0  0  0  0
    3.9398    2.5196    0.0343 N   0  0  0  0  0  0  0  0  0  0  0  0
   -2.8923    0.2863    0.3795 C   0  0  0  0  0  0  0  0  0  0  0  0
   -4.1683   -0.2593   -0.2759 C   0  0  0  0  0  0  0  0  0  0  0  0
   -3.1366    1.6797    0.9745 C   0  0  0  0  0  0  0  0  0  0  0  0
   -4.7278    0.7107   -1.3141 C   0  0  0  0  0  0  0  0  0  0  0  0
   -3.6980    2.6464   -0.0656 C   0  0  0  0  0  0  0  0  0  0  0  0
   -4.9611    2.0967   -0.7212 C   0  0  0  0  0  0  0  0  0  0  0  0
   -2.3823   -0.6758    1.4507 C   0  0  0  0  0  0  0  0  0  0  0  0
   -0.8295   -2.2765    0.3314 C   0  0  0  0  0  0  0  0  0  0  0  0
    1.3396   -1.6851   -0.1213 C   0  0  0  0  0  0  0  0  0  0  0  0
    2.3677   -0.6869   -0.0538 C   0  0  0  0  0  0  0  0  0  0  0  0
    2.2674    0.7294   -0.0747 C   0  0  0  0  0  0  0  0  0  0  0  0
    1.5975   -2.9173   -0.6864 C   0  0  0  0  0  0  0  0  0  0  0  0
    3.5640    1.2267    0.0183 C   0  0  0  0  0  0  0  0  0  0  0  0
    3.7039   -1.0083    0.0496 C   0  0  0  0  0  0  0  0  0  0  0  0
    0.5382   -3.8018   -0.6992 C   0  0  0  0  0  0  0  0  0  0  0  0
    1.2220    1.6630   -0.1627 C   0  0  0  0  0  0  0  0  0  0  0  0
    1.5552    3.0162   -0.1506 C   0  0  0  0  0  0  0  0  0  0  0  0
    2.8933    3.3735   -0.0528 C   0  0  0  0  0  0  0  0  0  0  0  0
   -2.1282    0.3841   -0.4038 H   0  0  0  0  0  0  0  0  0  0  0  0
   -4.9323   -0.4461    0.4898 H   0  0  0  0  0  0  0  0  0  0  0  0
   -3.9741   -1.2170   -0.7721 H   0  0  0  0  0  0  0  0  0  0  0  0
   -2.1992    2.0849    1.3741 H   0  0  0  0  0  0  0  0  0  0  0  0
   -3.8372    1.6088    1.8164 H   0  0  0  0  0  0  0  0  0  0  0  0
   -4.0290    0.7866   -2.1563 H   0  0  0  0  0  0  0  0  0  0  0  0
   -5.6694    0.3186   -1.7149 H   0  0  0  0  0  0  0  0  0  0  0  0
   -3.9179    3.6098    0.4078 H   0  0  0  0  0  0  0  0  0  0  0  0
   -2.9391    2.8344   -0.8351 H   0  0  0  0  0  0  0  0  0  0  0  0
   -5.7652    2.0444    0.0231 H   0  0  0  0  0  0  0  0  0  0  0  0
   -5.2972    2.7824   -1.5070 H   0  0  0  0  0  0  0  0  0  0  0  0
   -1.5194   -0.2579    1.9830 H   0  0  0  0  0  0  0  0  0  0  0  0
   -3.1595   -0.8289    2.2096 H   0  0  0  0  0  0  0  0  0  0  0  0
   -2.7970   -2.6558    0.8001 H   0  0  0  0  0  0  0  0  0  0  0  0
    2.5501   -3.2025   -1.1146 H   0  0  0  0  0  0  0  0  0  0  0  0
    4.2250   -1.9547    0.1067 H   0  0  0  0  0  0  0  0  0  0  0  0
    0.6441   -4.7934   -1.1258 H   0  0  0  0  0  0  0  0  0  0  0  0
    5.4256    0.2248    0.1703 H   0  0  0  0  0  0  0  0  0  0  0  0
    0.1843    1.3582   -0.2422 H   0  0  0  0  0  0  0  0  0  0  0  0
    0.7825    3.7748   -0.2171 H   0  0  0  0  0  0  0  0  0  0  0  0
    3.1710    4.4243   -0.0422 H   0  0  0  0  0  0  0  0  0  0  0  0
  1 12  1  0  0  0  0
  1 13  1  0  0  0  0
  1 37  1  0  0  0  0
  2 13  1  0  0  0  0
  2 14  2  0  0  0  0
  3 13  2  0  0  0  0
  3 20  1  0  0  0  0
  4 18  1  0  0  0  0
  4 19  1  0  0  0  0
  4 41  1  0  0  0  0
  5 18  1  0  0  0  0
  5 23  2  0  0  0  0
  6  7  1  0  0  0  0
  6  8  1  0  0  0  0
  6 12  1  0  0  0  0
  6 24  1  0  0  0  0
  7  9  1  0  0  0  0
  7 25  1  0  0  0  0
  7 26  1  0  0  0  0
  8 10  1  0  0  0  0
  8 27  1  0  0  0  0
  8 28  1  0  0  0  0
  9 11  1  0  0  0  0
  9 29  1  0  0  0  0
  9 30  1  0  0  0  0
 10 11  1  0  0  0  0
 10 31  1  0  0  0  0
 10 32  1  0  0  0  0
 11 33  1  0  0  0  0
 11 34  1  0  0  0  0
 12 35  1  0  0  0  0
 12 36  1  0  0  0  0
 14 15  1  0  0  0  0
 14 17  1  0  0  0  0
 15 16  1  0  0  0  0
 15 19  2  0  0  0  0
 16 18  2  0  0  0  0
 16 21  1  0  0  0  0
 17 20  2  0  0  0  0
 17 38  1  0  0  0  0
 19 39  1  0  0  0  0
 20 40  1  0  0  0  0
 21 22  2  0  0  0  0
 21 42  1  0  0  0  0
 22 23  1  0  0  0  0
 22 43  1  0  0  0  0
 23 44  1  0  0  0  0
M  END
> <PUBCHEM_COMPOUND_CID>
11645208

> <PUBCHEM_CONFORMER_RMSD>
0.8

> <PUBCHEM_CONFORMER_DIVERSEORDER>
1
77
70
8
48
39
85
9
57
92
69
14
72
76
93
34
73
10
7
27
84
88
90
22
15
20
5
81
65
6
59
3
42
35
56
36
2
63
66
71
32
68
16
21
79
30
25
45
80
29
91
28
12
60
41
46
83
4
37
52
82
64
87
11
51
58
17
86
33
38
23
24
78
13
54
67
26
94
47
89
44
40
74
19
31
75
18
49
55
50
43
61
62
53

> <PUBCHEM_MMFF94_PARTIAL_CHARGES>
24
1 -0.87
12 0.37
13 0.72
14 0.36
15 -0.05
17 -0.15
18 0.11
19 -0.3
2 -0.62
20 0.16
21 -0.15
22 -0.15
23 0.16
3 -0.62
37 0.4
38 0.15
39 0.15
4 0.03
40 0.15
41 0.27
42 0.15
43 0.15
44 0.15
5 -0.57

> <PUBCHEM_EFFECTIVE_ROTOR_COUNT>
5.2

> <PUBCHEM_PHARMACOPHORE_FEATURES>
10
1 1 donor
1 2 acceptor
1 4 cation
1 4 donor
1 5 acceptor
4 1 2 3 13 cation
5 4 15 16 18 19 rings
6 2 3 13 14 17 20 rings
6 5 16 18 21 22 23 rings
6 6 7 8 9 10 11 rings

> <PUBCHEM_HEAVY_ATOM_COUNT>
23

> <PUBCHEM_ATOM_DEF_STEREO_COUNT>
0

> <PUBCHEM_ATOM_UDEF_STEREO_COUNT>
0

> <PUBCHEM_BOND_DEF_STEREO_COUNT>
0

> <PUBCHEM_BOND_UDEF_STEREO_COUNT>
0

> <PUBCHEM_ISOTOPIC_ATOM_COUNT>
0

> <PUBCHEM_COMPONENT_COUNT>
1

> <PUBCHEM_CACTVS_TAUTO_COUNT>
9

> <PUBCHEM_CONFORMER_ID>
00B1B11800000001

> <PUBCHEM_MMFF94_ENERGY>
46.663

> <PUBCHEM_FEATURE_SELFOVERLAP>
50.859

> <PUBCHEM_SHAPE_FINGERPRINT>
10411042 1 17474106497423846591
10670039 82 17327475017222209292
10871710 139 16967184886019940917
11370993 70 18410570716924380297
11725454 13 17676757696255791611
12100795 323 18189333635655791077
12403260 363 18411410739476175571
12633257 1 18114453457777167264
12769317 202 18265882584711829789
12788726 201 17758943110429164282
12978246 48 18337956812757311697
13402501 40 18188770544115933933
13583140 156 17894916247376411691
13590594 115 17330279364172089291
138480 1 17906735804159113567
14251764 38 18408884040507225289
14466204 15 18336539426790060786
14468879 13 18260832643837903593
14790565 3 17830461944793101892
14957384 54 18261947548438758962
15003188 8 18265036093839495208
15081414 286 18124608482699226489
17093844 170 18266173920923058584
19930381 70 18410292476501103165
20028762 73 18129652015919765590
20567600 299 18269269071677183753
20621476 13 18337955558584273076
20775438 99 16764187487887019903
21197605 99 18337678615658247179
21860390 5 18198345043904304583
22749437 52 18409732889079891281
23227448 37 18411418449322176287
23559900 14 18340483353054428299
238 59 18411694366516006779
25265897 201 17772773593002074997
26353 1 16836597577980003983
3014063 31 17545041502900331525
3117164 225 18267566083618051536
350125 39 18194693776225864275
469060 322 16823353385071598938
474 4 18339358561708083739
5081480 168 17413062840062034279
54672768 99 18408324384445989228
5939293 188 18193274096371966090
6328613 192 18260837025190244628
6443956 14 18049726221862503324
9981440 41 18337666511960288275

> <PUBCHEM_SHAPE_MULTIPOLES>
448.42
9.18
4.79
0.94
6.55
1.24
0.06
-6.76
-1.35
-2.25
-0.65
0.89
0.13
0.66

> <PUBCHEM_SHAPE_SELFOVERLAP>
978.249

> <PUBCHEM_SHAPE_VOLUME>
238

> <PUBCHEM_COORDINATE_TYPE>
2
5
10

$$$$
